@<TRIPOS>MOLECULE
DKPES_CSD_MMMF_1_0
   64    67     0     0     0
SMALL
USER_CHARGES

@<TRIPOS>ATOM
      1 C1          2.0121   -1.2143    1.2319 C.2       1 <0>        -0.1500
      2 C2          0.3162   -0.9298   -0.4630 C.2       1 <0>        -0.1356
      3 C3          2.9245   -1.9459    1.8863 C.2       1 <0>        -0.2882
      4 C4          1.3270   -1.6661    0.0290 C.2       1 <0>        -0.1382
      5 C5         -0.4261   -1.3440   -1.6772 C.2       1 <0>         0.4946
      6 C6          3.0520   -6.2645    1.2605 C.2       1 <0>         0.4480
      7 C7         -0.0521   -2.6371   -2.3563 C.3       1 <0>         0.0610
      8 C8          2.6249   -5.3856    0.0869 C.3       1 <0>         0.0610
      9 C9          0.6099   -3.6118   -1.3906 C.3       1 <0>         0.0000
     10 C10         4.4784   -3.8939    3.7777 C.3       1 <0>         0.0000
     11 C11         4.7891   -5.2227    4.4865 C.3       1 <0>         0.0000
     12 C12         3.3262   -3.3340    1.4645 C.3       1 <0>         0.1382
     13 C13         2.2273   -3.9675    0.5485 C.3       1 <0>         0.0000
     14 C14         3.5426   -4.2948    2.6428 C.3       1 <0>         0.0000
     15 C15         4.2322   -6.3446    3.5783 C.3       1 <0>         0.0000
     16 C16         1.7910   -2.9885   -0.5996 C.3       1 <0>         0.1382
     17 C17         4.0987   -5.6679    2.1953 C.3       1 <0>         0.0610
     18 C18         2.9581   -2.6968   -1.5724 C.3       1 <0>         0.0000
     19 C19         5.4441   -5.6231    1.4437 C.3       1 <0>         0.0000
     20 C20         4.5183   -8.6617    2.6779 C.3       1 <0>         0.0000
     21 C21         6.3229   -9.1702    5.2571 C.3       1 <0>         0.0000
     22 C22         5.1520   -8.2058    5.0632 C.3       1 <0>         0.0000
     23 C23         6.3373   -9.7563    6.6629 C.3       1 <0>         0.2800
     24 C24         5.0782   -7.6104    3.6426 C.3       1 <0>         0.0000
     25 O1          8.8862  -12.2533    7.9425 O.3       1 <0>        -0.8167
     26 O2         -1.3014   -0.6098   -2.1336 O.2       1 <0>        -0.5700
     27 O3          2.6287   -7.4120    1.3872 O.2       1 <0>        -0.5700
     28 O4          6.4736  -12.2095    8.3883 O.2       1 <0>        -0.8167
     29 O5          7.8939  -10.3682    9.1717 O.2       1 <0>        -0.8167
     30 O6          7.4346  -10.6521    6.7758 O.3       1 <0>        -0.4637
     31 S1          7.6994  -11.4369    8.1929 S.o2      1 <0>         1.6337
     32 H1          1.7714   -0.2251    1.6135 H         1 <0>         0.1500
     33 H2          0.0003    0.0002   -0.0001 H         1 <0>         0.1500
     34 H3          3.4155   -1.5047    2.7491 H         1 <0>         0.1500
     35 H4         -0.9660   -3.0949   -2.7512 H         1 <0>         0.0000
     36 H5          0.6022   -2.4064   -3.2029 H         1 <0>         0.0000
     37 H6          3.4445   -5.3628   -0.6369 H         1 <0>         0.0000
     38 H7          1.7735   -5.8804   -0.3920 H         1 <0>         0.0000
     39 H8         -0.1524   -3.9705   -0.6847 H         1 <0>         0.0000
     40 H9          0.9430   -4.4864   -1.9618 H         1 <0>         0.0000
     41 H10         4.0144   -3.1796    4.4653 H         1 <0>         0.0000
     42 H11         5.3994   -3.4390    3.3963 H         1 <0>         0.0000
     43 H12         5.8694   -5.3151    4.6450 H         1 <0>         0.0000
     44 H13         4.3104   -5.2623    5.4714 H         1 <0>         0.0000
     45 H14         4.2678   -3.2271    0.9157 H         1 <0>         0.0000
     46 H15         1.3362   -4.1106    1.1841 H         1 <0>         0.0000
     47 H16         2.5535   -4.4515    3.1073 H         1 <0>         0.0000
     48 H17         3.2283   -6.6104    3.9404 H         1 <0>         0.0000
     49 H18         3.2850   -3.6286   -2.0152 H         1 <0>         0.0000
     50 H19         3.7697   -2.2435   -1.0182 H         1 <0>         0.0000
     51 H20         2.6102   -2.0207   -2.3426 H         1 <0>         0.0000
     52 H21         6.2005   -5.2008    2.0953 H         1 <0>         0.0000
     53 H22         5.3355   -5.0069    0.5586 H         1 <0>         0.0000
     54 H23         5.7248   -6.6306    1.1587 H         1 <0>         0.0000
     55 H24         3.4984   -8.9472    2.9564 H         1 <0>         0.0000
     56 H25         5.1358   -9.5663    2.6762 H         1 <0>         0.0000
     57 H26         4.4862   -8.2713    1.6553 H         1 <0>         0.0000
     58 H27         6.2743   -9.9919    4.5337 H         1 <0>         0.0000
     59 H28         7.2737   -8.6565    5.0689 H         1 <0>         0.0000
     60 H29         5.2482   -7.3872    5.7883 H         1 <0>         0.0000
     61 H30         4.2124   -8.7226    5.2963 H         1 <0>         0.0000
     62 H31         5.4142  -10.3091    6.8645 H         1 <0>         0.0000
     63 H32         6.4529   -8.9686    7.4141 H         1 <0>         0.0000
     64 H33         6.0978   -7.3661    3.3127 H         1 <0>         0.0000
@<TRIPOS>BOND
     1    1    3 2
     2    1    4 1
     3    2    4 2
     4    2    5 1
     5    3   12 1
     6    4   16 1
     7    5    7 1
     8    5   26 2
     9    6    8 1
    10    6   17 1
    11    6   27 2
    12    7    9 1
    13    8   13 1
    14    9   16 1
    15   10   11 1
    16   10   14 1
    17   11   15 1
    18   12   13 1
    19   12   14 1
    20   13   16 1
    21   14   17 1
    22   15   17 1
    23   15   24 1
    24   16   18 1
    25   17   19 1
    26   20   24 1
    27   21   22 1
    28   21   23 1
    29   22   24 1
    30   23   30 1
    31   25   31 1
    32   28   31 2
    33   29   31 2
    34   30   31 1
    35    1   32 1
    36    2   33 1
    37    3   34 1
    38    7   35 1
    39    7   36 1
    40    8   37 1
    41    8   38 1
    42    9   39 1
    43    9   40 1
    44   10   41 1
    45   10   42 1
    46   11   43 1
    47   11   44 1
    48   12   45 1
    49   13   46 1
    50   14   47 1
    51   15   48 1
    52   18   49 1
    53   18   50 1
    54   18   51 1
    55   19   52 1
    56   19   53 1
    57   19   54 1
    58   20   55 1
    59   20   56 1
    60   20   57 1
    61   21   58 1
    62   21   59 1
    63   22   60 1
    64   22   61 1
    65   23   62 1
    66   23   63 1
    67   24   64 1
@<TRIPOS>MOLECULE
DKPES_CSD_MMMF_1_1
   64    67     0     0     0
SMALL
USER_CHARGES

@<TRIPOS>ATOM
      1 C1          2.0121   -1.2143    1.2319 C.2       1 <0>        -0.1500
      2 C2          0.3162   -0.9298   -0.4630 C.2       1 <0>        -0.1356
      3 C3          2.9245   -1.9459    1.8863 C.2       1 <0>        -0.2882
      4 C4          1.3270   -1.6661    0.0290 C.2       1 <0>        -0.1382
      5 C5         -0.4261   -1.3440   -1.6772 C.2       1 <0>         0.4946
      6 C6          3.0520   -6.2645    1.2605 C.2       1 <0>         0.4480
      7 C7         -0.0521   -2.6371   -2.3563 C.3       1 <0>         0.0610
      8 C8          2.6249   -5.3856    0.0869 C.3       1 <0>         0.0610
      9 C9          0.6099   -3.6118   -1.3906 C.3       1 <0>         0.0000
     10 C10         4.4784   -3.8939    3.7777 C.3       1 <0>         0.0000
     11 C11         4.7891   -5.2227    4.4865 C.3       1 <0>         0.0000
     12 C12         3.3262   -3.3340    1.4645 C.3       1 <0>         0.1382
     13 C13         2.2273   -3.9675    0.5485 C.3       1 <0>         0.0000
     14 C14         3.5426   -4.2948    2.6428 C.3       1 <0>         0.0000
     15 C15         4.2322   -6.3446    3.5783 C.3       1 <0>         0.0000
     16 C16         1.7910   -2.9885   -0.5996 C.3       1 <0>         0.1382
     17 C17         4.0987   -5.6679    2.1953 C.3       1 <0>         0.0610
     18 C18         2.9581   -2.6968   -1.5724 C.3       1 <0>         0.0000
     19 C19         5.4441   -5.6231    1.4437 C.3       1 <0>         0.0000
     20 C20         4.5183   -8.6617    2.6779 C.3       1 <0>         0.0000
     21 C21         6.3229   -9.1702    5.2571 C.3       1 <0>         0.0000
     22 C22         5.1520   -8.2058    5.0632 C.3       1 <0>         0.0000
     23 C23         6.3373   -9.7563    6.6629 C.3       1 <0>         0.2800
     24 C24         5.0782   -7.6104    3.6426 C.3       1 <0>         0.0000
     25 O1          6.6630   -7.7314    9.8508 O.3       1 <0>        -0.8167
     26 O2         -1.3014   -0.6098   -2.1336 O.2       1 <0>        -0.5700
     27 O3          2.6287   -7.4120    1.3872 O.2       1 <0>        -0.5700
     28 O4          7.6910   -9.9000    9.3389 O.2       1 <0>        -0.8167
     29 O5          5.2484   -9.7079    9.4742 O.2       1 <0>        -0.8167
     30 O6          6.4736   -8.6975    7.6007 O.3       1 <0>        -0.4637
     31 S1          6.5190   -9.0358    9.2062 S.o2      1 <0>         1.6337
     32 H1          1.7714   -0.2251    1.6135 H         1 <0>         0.1500
     33 H2          0.0003    0.0002   -0.0001 H         1 <0>         0.1500
     34 H3          3.4155   -1.5047    2.7491 H         1 <0>         0.1500
     35 H4         -0.9660   -3.0949   -2.7512 H         1 <0>         0.0000
     36 H5          0.6022   -2.4064   -3.2029 H         1 <0>         0.0000
     37 H6          3.4445   -5.3628   -0.6369 H         1 <0>         0.0000
     38 H7          1.7735   -5.8804   -0.3920 H         1 <0>         0.0000
     39 H8         -0.1524   -3.9705   -0.6847 H         1 <0>         0.0000
     40 H9          0.9430   -4.4864   -1.9618 H         1 <0>         0.0000
     41 H10         4.0144   -3.1796    4.4653 H         1 <0>         0.0000
     42 H11         5.3994   -3.4390    3.3963 H         1 <0>         0.0000
     43 H12         5.8694   -5.3151    4.6450 H         1 <0>         0.0000
     44 H13         4.3104   -5.2623    5.4714 H         1 <0>         0.0000
     45 H14         4.2678   -3.2271    0.9157 H         1 <0>         0.0000
     46 H15         1.3362   -4.1106    1.1841 H         1 <0>         0.0000
     47 H16         2.5535   -4.4515    3.1073 H         1 <0>         0.0000
     48 H17         3.2283   -6.6104    3.9404 H         1 <0>         0.0000
     49 H18         3.2850   -3.6286   -2.0152 H         1 <0>         0.0000
     50 H19         3.7697   -2.2435   -1.0182 H         1 <0>         0.0000
     51 H20         2.6102   -2.0207   -2.3426 H         1 <0>         0.0000
     52 H21         6.2005   -5.2008    2.0953 H         1 <0>         0.0000
     53 H22         5.3355   -5.0069    0.5586 H         1 <0>         0.0000
     54 H23         5.7248   -6.6306    1.1587 H         1 <0>         0.0000
     55 H24         3.4984   -8.9472    2.9564 H         1 <0>         0.0000
     56 H25         5.1358   -9.5663    2.6762 H         1 <0>         0.0000
     57 H26         4.4862   -8.2713    1.6553 H         1 <0>         0.0000
     58 H27         6.2743   -9.9919    4.5337 H         1 <0>         0.0000
     59 H28         7.2737   -8.6565    5.0689 H         1 <0>         0.0000
     60 H29         5.2482   -7.3872    5.7883 H         1 <0>         0.0000
     61 H30         4.2124   -8.7226    5.2963 H         1 <0>         0.0000
     62 H31         7.1790  -10.4446    6.7899 H         1 <0>         0.0000
     63 H32         5.4051  -10.2899    6.8740 H         1 <0>         0.0000
     64 H33         6.0978   -7.3661    3.3127 H         1 <0>         0.0000
@<TRIPOS>BOND
     1    1    3 2
     2    1    4 1
     3    2    4 2
     4    2    5 1
     5    3   12 1
     6    4   16 1
     7    5    7 1
     8    5   26 2
     9    6    8 1
    10    6   17 1
    11    6   27 2
    12    7    9 1
    13    8   13 1
    14    9   16 1
    15   10   11 1
    16   10   14 1
    17   11   15 1
    18   12   13 1
    19   12   14 1
    20   13   16 1
    21   14   17 1
    22   15   17 1
    23   15   24 1
    24   16   18 1
    25   17   19 1
    26   20   24 1
    27   21   22 1
    28   21   23 1
    29   22   24 1
    30   23   30 1
    31   25   31 1
    32   28   31 2
    33   29   31 2
    34   30   31 1
    35    1   32 1
    36    2   33 1
    37    3   34 1
    38    7   35 1
    39    7   36 1
    40    8   37 1
    41    8   38 1
    42    9   39 1
    43    9   40 1
    44   10   41 1
    45   10   42 1
    46   11   43 1
    47   11   44 1
    48   12   45 1
    49   13   46 1
    50   14   47 1
    51   15   48 1
    52   18   49 1
    53   18   50 1
    54   18   51 1
    55   19   52 1
    56   19   53 1
    57   19   54 1
    58   20   55 1
    59   20   56 1
    60   20   57 1
    61   21   58 1
    62   21   59 1
    63   22   60 1
    64   22   61 1
    65   23   62 1
    66   23   63 1
    67   24   64 1
@<TRIPOS>MOLECULE
DKPES_CSD_MMMF_1_2
   64    67     0     0     0
SMALL
USER_CHARGES

@<TRIPOS>ATOM
      1 C1          2.0121   -1.2143    1.2319 C.2       1 <0>        -0.1500
      2 C2          0.3162   -0.9298   -0.4630 C.2       1 <0>        -0.1356
      3 C3          2.9245   -1.9459    1.8863 C.2       1 <0>        -0.2882
      4 C4          1.3270   -1.6661    0.0290 C.2       1 <0>        -0.1382
      5 C5         -0.4261   -1.3440   -1.6772 C.2       1 <0>         0.4946
      6 C6          3.0520   -6.2645    1.2605 C.2       1 <0>         0.4480
      7 C7         -0.0521   -2.6371   -2.3563 C.3       1 <0>         0.0610
      8 C8          2.6249   -5.3856    0.0869 C.3       1 <0>         0.0610
      9 C9          0.6099   -3.6118   -1.3906 C.3       1 <0>         0.0000
     10 C10         4.4784   -3.8939    3.7777 C.3       1 <0>         0.0000
     11 C11         4.7891   -5.2227    4.4865 C.3       1 <0>         0.0000
     12 C12         3.3262   -3.3340    1.4645 C.3       1 <0>         0.1382
     13 C13         2.2273   -3.9675    0.5485 C.3       1 <0>         0.0000
     14 C14         3.5426   -4.2948    2.6428 C.3       1 <0>         0.0000
     15 C15         4.2322   -6.3446    3.5783 C.3       1 <0>         0.0000
     16 C16         1.7910   -2.9885   -0.5996 C.3       1 <0>         0.1382
     17 C17         4.0987   -5.6679    2.1953 C.3       1 <0>         0.0610
     18 C18         2.9581   -2.6968   -1.5724 C.3       1 <0>         0.0000
     19 C19         5.4441   -5.6231    1.4437 C.3       1 <0>         0.0000
     20 C20         4.5183   -8.6617    2.6779 C.3       1 <0>         0.0000
     21 C21         6.3229   -9.1702    5.2571 C.3       1 <0>         0.0000
     22 C22         5.1520   -8.2058    5.0632 C.3       1 <0>         0.0000
     23 C23         6.3373   -9.7563    6.6629 C.3       1 <0>         0.2800
     24 C24         5.0782   -7.6104    3.6426 C.3       1 <0>         0.0000
     25 O1          3.5243  -11.7850    8.1928 O.3       1 <0>        -0.8167
     26 O2         -1.3014   -0.6098   -2.1336 O.2       1 <0>        -0.5700
     27 O3          2.6287   -7.4120    1.3872 O.2       1 <0>        -0.5700
     28 O4          4.9195  -10.0895    9.2883 O.2       1 <0>        -0.8167
     29 O5          5.9425  -12.1550    8.4467 O.2       1 <0>        -0.8167
     30 O6          5.1168  -10.4497    6.8840 O.3       1 <0>        -0.4637
     31 S1          4.8524  -11.1882    8.3258 S.o2      1 <0>         1.6337
     32 H1          1.7714   -0.2251    1.6135 H         1 <0>         0.1500
     33 H2          0.0003    0.0002   -0.0001 H         1 <0>         0.1500
     34 H3          3.4155   -1.5047    2.7491 H         1 <0>         0.1500
     35 H4         -0.9660   -3.0949   -2.7512 H         1 <0>         0.0000
     36 H5          0.6022   -2.4064   -3.2029 H         1 <0>         0.0000
     37 H6          3.4445   -5.3628   -0.6369 H         1 <0>         0.0000
     38 H7          1.7735   -5.8804   -0.3920 H         1 <0>         0.0000
     39 H8         -0.1524   -3.9705   -0.6847 H         1 <0>         0.0000
     40 H9          0.9430   -4.4864   -1.9618 H         1 <0>         0.0000
     41 H10         4.0144   -3.1796    4.4653 H         1 <0>         0.0000
     42 H11         5.3994   -3.4390    3.3963 H         1 <0>         0.0000
     43 H12         5.8694   -5.3151    4.6450 H         1 <0>         0.0000
     44 H13         4.3104   -5.2623    5.4714 H         1 <0>         0.0000
     45 H14         4.2678   -3.2271    0.9157 H         1 <0>         0.0000
     46 H15         1.3362   -4.1106    1.1841 H         1 <0>         0.0000
     47 H16         2.5535   -4.4515    3.1073 H         1 <0>         0.0000
     48 H17         3.2283   -6.6104    3.9404 H         1 <0>         0.0000
     49 H18         3.2850   -3.6286   -2.0152 H         1 <0>         0.0000
     50 H19         3.7697   -2.2435   -1.0182 H         1 <0>         0.0000
     51 H20         2.6102   -2.0207   -2.3426 H         1 <0>         0.0000
     52 H21         6.2005   -5.2008    2.0953 H         1 <0>         0.0000
     53 H22         5.3355   -5.0069    0.5586 H         1 <0>         0.0000
     54 H23         5.7248   -6.6306    1.1587 H         1 <0>         0.0000
     55 H24         3.4984   -8.9472    2.9564 H         1 <0>         0.0000
     56 H25         5.1358   -9.5663    2.6762 H         1 <0>         0.0000
     57 H26         4.4862   -8.2713    1.6553 H         1 <0>         0.0000
     58 H27         6.2743   -9.9919    4.5337 H         1 <0>         0.0000
     59 H28         7.2737   -8.6565    5.0689 H         1 <0>         0.0000
     60 H29         5.2482   -7.3872    5.7883 H         1 <0>         0.0000
     61 H30         4.2124   -8.7226    5.2963 H         1 <0>         0.0000
     62 H31         6.4297   -8.9657    7.4143 H         1 <0>         0.0000
     63 H32         7.1651  -10.4623    6.7840 H         1 <0>         0.0000
     64 H33         6.0978   -7.3661    3.3127 H         1 <0>         0.0000
@<TRIPOS>BOND
     1    1    3 2
     2    1    4 1
     3    2    4 2
     4    2    5 1
     5    3   12 1
     6    4   16 1
     7    5    7 1
     8    5   26 2
     9    6    8 1
    10    6   17 1
    11    6   27 2
    12    7    9 1
    13    8   13 1
    14    9   16 1
    15   10   11 1
    16   10   14 1
    17   11   15 1
    18   12   13 1
    19   12   14 1
    20   13   16 1
    21   14   17 1
    22   15   17 1
    23   15   24 1
    24   16   18 1
    25   17   19 1
    26   20   24 1
    27   21   22 1
    28   21   23 1
    29   22   24 1
    30   23   30 1
    31   25   31 1
    32   28   31 2
    33   29   31 2
    34   30   31 1
    35    1   32 1
    36    2   33 1
    37    3   34 1
    38    7   35 1
    39    7   36 1
    40    8   37 1
    41    8   38 1
    42    9   39 1
    43    9   40 1
    44   10   41 1
    45   10   42 1
    46   11   43 1
    47   11   44 1
    48   12   45 1
    49   13   46 1
    50   14   47 1
    51   15   48 1
    52   18   49 1
    53   18   50 1
    54   18   51 1
    55   19   52 1
    56   19   53 1
    57   19   54 1
    58   20   55 1
    59   20   56 1
    60   20   57 1
    61   21   58 1
    62   21   59 1
    63   22   60 1
    64   22   61 1
    65   23   62 1
    66   23   63 1
    67   24   64 1
@<TRIPOS>MOLECULE
DKPES_CSD_MMMF_1_3
   64    67     0     0     0
SMALL
USER_CHARGES

@<TRIPOS>ATOM
      1 C1          2.0121   -1.2143    1.2319 C.2       1 <0>        -0.1500
      2 C2          0.3162   -0.9298   -0.4630 C.2       1 <0>        -0.1356
      3 C3          2.9245   -1.9459    1.8863 C.2       1 <0>        -0.2882
      4 C4          1.3270   -1.6661    0.0290 C.2       1 <0>        -0.1382
      5 C5         -0.4261   -1.3440   -1.6772 C.2       1 <0>         0.4946
      6 C6          3.0520   -6.2645    1.2605 C.2       1 <0>         0.4480
      7 C7         -0.0521   -2.6371   -2.3563 C.3       1 <0>         0.0610
      8 C8          2.6249   -5.3856    0.0869 C.3       1 <0>         0.0610
      9 C9          0.6099   -3.6118   -1.3906 C.3       1 <0>         0.0000
     10 C10         4.4784   -3.8939    3.7777 C.3       1 <0>         0.0000
     11 C11         4.7891   -5.2227    4.4865 C.3       1 <0>         0.0000
     12 C12         3.3262   -3.3340    1.4645 C.3       1 <0>         0.1382
     13 C13         2.2273   -3.9675    0.5485 C.3       1 <0>         0.0000
     14 C14         3.5426   -4.2948    2.6428 C.3       1 <0>         0.0000
     15 C15         4.2322   -6.3446    3.5783 C.3       1 <0>         0.0000
     16 C16         1.7910   -2.9885   -0.5996 C.3       1 <0>         0.1382
     17 C17         4.0987   -5.6679    2.1953 C.3       1 <0>         0.0610
     18 C18         2.9581   -2.6968   -1.5724 C.3       1 <0>         0.0000
     19 C19         5.4441   -5.6231    1.4437 C.3       1 <0>         0.0000
     20 C20         4.5183   -8.6617    2.6779 C.3       1 <0>         0.0000
     21 C21         3.7835   -8.5683    5.6413 C.3       1 <0>         0.0000
     22 C22         5.1520   -8.2058    5.0632 C.3       1 <0>         0.0000
     23 C23         3.9029   -9.1223    7.0551 C.3       1 <0>         0.2800
     24 C24         5.0782   -7.6104    3.6426 C.3       1 <0>         0.0000
     25 O1          5.8271  -12.2483    8.0012 O.3       1 <0>        -0.8167
     26 O2         -1.3014   -0.6098   -2.1336 O.2       1 <0>        -0.5700
     27 O3          2.6287   -7.4120    1.3872 O.2       1 <0>        -0.5700
     28 O4          3.6636  -11.4944    8.8799 O.2       1 <0>        -0.8167
     29 O5          5.6764  -10.1457    9.2685 O.2       1 <0>        -0.8167
     30 O6          4.6973  -10.3001    7.0213 O.3       1 <0>        -0.4637
     31 S1          4.9969  -11.1174    8.4129 S.o2      1 <0>         1.6337
     32 H1          1.7714   -0.2251    1.6135 H         1 <0>         0.1500
     33 H2          0.0003    0.0002   -0.0001 H         1 <0>         0.1500
     34 H3          3.4155   -1.5047    2.7491 H         1 <0>         0.1500
     35 H4         -0.9660   -3.0949   -2.7512 H         1 <0>         0.0000
     36 H5          0.6022   -2.4064   -3.2029 H         1 <0>         0.0000
     37 H6          3.4445   -5.3628   -0.6369 H         1 <0>         0.0000
     38 H7          1.7735   -5.8804   -0.3920 H         1 <0>         0.0000
     39 H8         -0.1524   -3.9705   -0.6847 H         1 <0>         0.0000
     40 H9          0.9430   -4.4864   -1.9618 H         1 <0>         0.0000
     41 H10         4.0144   -3.1796    4.4653 H         1 <0>         0.0000
     42 H11         5.3994   -3.4390    3.3963 H         1 <0>         0.0000
     43 H12         5.8694   -5.3151    4.6450 H         1 <0>         0.0000
     44 H13         4.3104   -5.2623    5.4714 H         1 <0>         0.0000
     45 H14         4.2678   -3.2271    0.9157 H         1 <0>         0.0000
     46 H15         1.3362   -4.1106    1.1841 H         1 <0>         0.0000
     47 H16         2.5535   -4.4515    3.1073 H         1 <0>         0.0000
     48 H17         3.2283   -6.6104    3.9404 H         1 <0>         0.0000
     49 H18         3.2850   -3.6286   -2.0152 H         1 <0>         0.0000
     50 H19         3.7697   -2.2435   -1.0182 H         1 <0>         0.0000
     51 H20         2.6102   -2.0207   -2.3426 H         1 <0>         0.0000
     52 H21         6.2005   -5.2008    2.0953 H         1 <0>         0.0000
     53 H22         5.3355   -5.0069    0.5586 H         1 <0>         0.0000
     54 H23         5.7248   -6.6306    1.1587 H         1 <0>         0.0000
     55 H24         3.4984   -8.9472    2.9564 H         1 <0>         0.0000
     56 H25         5.1358   -9.5663    2.6762 H         1 <0>         0.0000
     57 H26         4.4862   -8.2713    1.6553 H         1 <0>         0.0000
     58 H27         3.1248   -7.6926    5.6610 H         1 <0>         0.0000
     59 H28         3.2849   -9.3082    5.0030 H         1 <0>         0.0000
     60 H29         5.7732   -9.1106    5.0388 H         1 <0>         0.0000
     61 H30         5.6548   -7.4981    5.7346 H         1 <0>         0.0000
     62 H31         2.9179   -9.3781    7.4584 H         1 <0>         0.0000
     63 H32         4.3835   -8.3978    7.7201 H         1 <0>         0.0000
     64 H33         6.0978   -7.3661    3.3127 H         1 <0>         0.0000
@<TRIPOS>BOND
     1    1    3 2
     2    1    4 1
     3    2    4 2
     4    2    5 1
     5    3   12 1
     6    4   16 1
     7    5    7 1
     8    5   26 2
     9    6    8 1
    10    6   17 1
    11    6   27 2
    12    7    9 1
    13    8   13 1
    14    9   16 1
    15   10   11 1
    16   10   14 1
    17   11   15 1
    18   12   13 1
    19   12   14 1
    20   13   16 1
    21   14   17 1
    22   15   17 1
    23   15   24 1
    24   16   18 1
    25   17   19 1
    26   20   24 1
    27   21   22 1
    28   21   23 1
    29   22   24 1
    30   23   30 1
    31   25   31 1
    32   28   31 2
    33   29   31 2
    34   30   31 1
    35    1   32 1
    36    2   33 1
    37    3   34 1
    38    7   35 1
    39    7   36 1
    40    8   37 1
    41    8   38 1
    42    9   39 1
    43    9   40 1
    44   10   41 1
    45   10   42 1
    46   11   43 1
    47   11   44 1
    48   12   45 1
    49   13   46 1
    50   14   47 1
    51   15   48 1
    52   18   49 1
    53   18   50 1
    54   18   51 1
    55   19   52 1
    56   19   53 1
    57   19   54 1
    58   20   55 1
    59   20   56 1
    60   20   57 1
    61   21   58 1
    62   21   59 1
    63   22   60 1
    64   22   61 1
    65   23   62 1
    66   23   63 1
    67   24   64 1
@<TRIPOS>MOLECULE
DKPES_CSD_MMMF_1_4
   64    67     0     0     0
SMALL
USER_CHARGES

@<TRIPOS>ATOM
      1 C1          2.0121   -1.2143    1.2319 C.2       1 <0>        -0.1500
      2 C2          0.3162   -0.9298   -0.4630 C.2       1 <0>        -0.1356
      3 C3          2.9245   -1.9459    1.8863 C.2       1 <0>        -0.2882
      4 C4          1.3270   -1.6661    0.0290 C.2       1 <0>        -0.1382
      5 C5         -0.4261   -1.3440   -1.6772 C.2       1 <0>         0.4946
      6 C6          3.0520   -6.2645    1.2605 C.2       1 <0>         0.4480
      7 C7         -0.0521   -2.6371   -2.3563 C.3       1 <0>         0.0610
      8 C8          2.6249   -5.3856    0.0869 C.3       1 <0>         0.0610
      9 C9          0.6099   -3.6118   -1.3906 C.3       1 <0>         0.0000
     10 C10         4.4784   -3.8939    3.7777 C.3       1 <0>         0.0000
     11 C11         4.7891   -5.2227    4.4865 C.3       1 <0>         0.0000
     12 C12         3.3262   -3.3340    1.4645 C.3       1 <0>         0.1382
     13 C13         2.2273   -3.9675    0.5485 C.3       1 <0>         0.0000
     14 C14         3.5426   -4.2948    2.6428 C.3       1 <0>         0.0000
     15 C15         4.2322   -6.3446    3.5783 C.3       1 <0>         0.0000
     16 C16         1.7910   -2.9885   -0.5996 C.3       1 <0>         0.1382
     17 C17         4.0987   -5.6679    2.1953 C.3       1 <0>         0.0610
     18 C18         2.9581   -2.6968   -1.5724 C.3       1 <0>         0.0000
     19 C19         5.4441   -5.6231    1.4437 C.3       1 <0>         0.0000
     20 C20         4.5183   -8.6617    2.6779 C.3       1 <0>         0.0000
     21 C21         5.9758   -9.4919    5.1403 C.3       1 <0>         0.0000
     22 C22         5.1520   -8.2058    5.0632 C.3       1 <0>         0.0000
     23 C23         7.4225   -9.2547    4.7271 C.3       1 <0>         0.2800
     24 C24         5.0782   -7.6104    3.6426 C.3       1 <0>         0.0000
     25 O1         10.1240  -11.9134    4.6745 O.3       1 <0>        -0.8167
     26 O2         -1.3014   -0.6098   -2.1336 O.2       1 <0>        -0.5700
     27 O3          2.6287   -7.4120    1.3872 O.2       1 <0>        -0.5700
     28 O4         10.3345   -9.5738    5.3843 O.2       1 <0>        -0.8167
     29 O5          9.7833  -10.0973    3.0512 O.2       1 <0>        -0.8167
     30 O6          8.1372  -10.4782    4.8338 O.3       1 <0>        -0.4637
     31 S1          9.7323  -10.5228    4.4491 S.o2      1 <0>         1.6337
     32 H1          1.7714   -0.2251    1.6135 H         1 <0>         0.1500
     33 H2          0.0003    0.0002   -0.0001 H         1 <0>         0.1500
     34 H3          3.4155   -1.5047    2.7491 H         1 <0>         0.1500
     35 H4         -0.9660   -3.0949   -2.7512 H         1 <0>         0.0000
     36 H5          0.6022   -2.4064   -3.2029 H         1 <0>         0.0000
     37 H6          3.4445   -5.3628   -0.6369 H         1 <0>         0.0000
     38 H7          1.7735   -5.8804   -0.3920 H         1 <0>         0.0000
     39 H8         -0.1524   -3.9705   -0.6847 H         1 <0>         0.0000
     40 H9          0.9430   -4.4864   -1.9618 H         1 <0>         0.0000
     41 H10         4.0144   -3.1796    4.4653 H         1 <0>         0.0000
     42 H11         5.3994   -3.4390    3.3963 H         1 <0>         0.0000
     43 H12         5.8694   -5.3151    4.6450 H         1 <0>         0.0000
     44 H13         4.3104   -5.2623    5.4714 H         1 <0>         0.0000
     45 H14         4.2678   -3.2271    0.9157 H         1 <0>         0.0000
     46 H15         1.3362   -4.1106    1.1841 H         1 <0>         0.0000
     47 H16         2.5535   -4.4515    3.1073 H         1 <0>         0.0000
     48 H17         3.2283   -6.6104    3.9404 H         1 <0>         0.0000
     49 H18         3.2850   -3.6286   -2.0152 H         1 <0>         0.0000
     50 H19         3.7697   -2.2435   -1.0182 H         1 <0>         0.0000
     51 H20         2.6102   -2.0207   -2.3426 H         1 <0>         0.0000
     52 H21         6.2005   -5.2008    2.0953 H         1 <0>         0.0000
     53 H22         5.3355   -5.0069    0.5586 H         1 <0>         0.0000
     54 H23         5.7248   -6.6306    1.1587 H         1 <0>         0.0000
     55 H24         3.4984   -8.9472    2.9564 H         1 <0>         0.0000
     56 H25         5.1358   -9.5663    2.6762 H         1 <0>         0.0000
     57 H26         4.4862   -8.2713    1.6553 H         1 <0>         0.0000
     58 H27         5.9628   -9.9021    6.1564 H         1 <0>         0.0000
     59 H28         5.5368  -10.2638    4.4961 H         1 <0>         0.0000
     60 H29         5.5971   -7.4633    5.7383 H         1 <0>         0.0000
     61 H30         4.1381   -8.4002    5.4353 H         1 <0>         0.0000
     62 H31         7.8983   -8.5154    5.3792 H         1 <0>         0.0000
     63 H32         7.4815   -8.9069    3.6908 H         1 <0>         0.0000
     64 H33         6.0978   -7.3661    3.3127 H         1 <0>         0.0000
@<TRIPOS>BOND
     1    1    3 2
     2    1    4 1
     3    2    4 2
     4    2    5 1
     5    3   12 1
     6    4   16 1
     7    5    7 1
     8    5   26 2
     9    6    8 1
    10    6   17 1
    11    6   27 2
    12    7    9 1
    13    8   13 1
    14    9   16 1
    15   10   11 1
    16   10   14 1
    17   11   15 1
    18   12   13 1
    19   12   14 1
    20   13   16 1
    21   14   17 1
    22   15   17 1
    23   15   24 1
    24   16   18 1
    25   17   19 1
    26   20   24 1
    27   21   22 1
    28   21   23 1
    29   22   24 1
    30   23   30 1
    31   25   31 1
    32   28   31 2
    33   29   31 2
    34   30   31 1
    35    1   32 1
    36    2   33 1
    37    3   34 1
    38    7   35 1
    39    7   36 1
    40    8   37 1
    41    8   38 1
    42    9   39 1
    43    9   40 1
    44   10   41 1
    45   10   42 1
    46   11   43 1
    47   11   44 1
    48   12   45 1
    49   13   46 1
    50   14   47 1
    51   15   48 1
    52   18   49 1
    53   18   50 1
    54   18   51 1
    55   19   52 1
    56   19   53 1
    57   19   54 1
    58   20   55 1
    59   20   56 1
    60   20   57 1
    61   21   58 1
    62   21   59 1
    63   22   60 1
    64   22   61 1
    65   23   62 1
    66   23   63 1
    67   24   64 1
@<TRIPOS>MOLECULE
DKPES_CSD_MMMF_1_5
   64    67     0     0     0
SMALL
USER_CHARGES

@<TRIPOS>ATOM
      1 C1          2.0121   -1.2143    1.2319 C.2       1 <0>        -0.1500
      2 C2          0.3162   -0.9298   -0.4630 C.2       1 <0>        -0.1356
      3 C3          2.9245   -1.9459    1.8863 C.2       1 <0>        -0.2882
      4 C4          1.3270   -1.6661    0.0290 C.2       1 <0>        -0.1382
      5 C5         -0.4261   -1.3440   -1.6772 C.2       1 <0>         0.4946
      6 C6          3.0520   -6.2645    1.2605 C.2       1 <0>         0.4480
      7 C7         -0.0521   -2.6371   -2.3563 C.3       1 <0>         0.0610
      8 C8          2.6249   -5.3856    0.0869 C.3       1 <0>         0.0610
      9 C9          0.6099   -3.6118   -1.3906 C.3       1 <0>         0.0000
     10 C10         4.4784   -3.8939    3.7777 C.3       1 <0>         0.0000
     11 C11         4.7891   -5.2227    4.4865 C.3       1 <0>         0.0000
     12 C12         3.3262   -3.3340    1.4645 C.3       1 <0>         0.1382
     13 C13         2.2273   -3.9675    0.5485 C.3       1 <0>         0.0000
     14 C14         3.5426   -4.2948    2.6428 C.3       1 <0>         0.0000
     15 C15         4.2322   -6.3446    3.5783 C.3       1 <0>         0.0000
     16 C16         1.7910   -2.9885   -0.5996 C.3       1 <0>         0.1382
     17 C17         4.0987   -5.6679    2.1953 C.3       1 <0>         0.0610
     18 C18         2.9581   -2.6968   -1.5724 C.3       1 <0>         0.0000
     19 C19         5.4441   -5.6231    1.4437 C.3       1 <0>         0.0000
     20 C20         4.5183   -8.6617    2.6779 C.3       1 <0>         0.0000
     21 C21         6.3229   -9.1702    5.2571 C.3       1 <0>         0.0000
     22 C22         5.1520   -8.2058    5.0632 C.3       1 <0>         0.0000
     23 C23         7.6610   -8.4753    5.0413 C.3       1 <0>         0.2800
     24 C24         5.0782   -7.6104    3.6426 C.3       1 <0>         0.0000
     25 O1         10.4026   -7.7292    4.6939 O.3       1 <0>        -0.8167
     26 O2         -1.3014   -0.6098   -2.1336 O.2       1 <0>        -0.5700
     27 O3          2.6287   -7.4120    1.3872 O.2       1 <0>        -0.5700
     28 O4         11.0664  -10.0293    5.2327 O.2       1 <0>        -0.8167
     29 O5         10.2026   -8.5618    6.9995 O.2       1 <0>        -0.8167
     30 O6          8.7058   -9.4157    5.2495 O.3       1 <0>        -0.4637
     31 S1         10.2244   -8.8835    5.5734 S.o2      1 <0>         1.6337
     32 H1          1.7714   -0.2251    1.6135 H         1 <0>         0.1500
     33 H2          0.0003    0.0002   -0.0001 H         1 <0>         0.1500
     34 H3          3.4155   -1.5047    2.7491 H         1 <0>         0.1500
     35 H4         -0.9660   -3.0949   -2.7512 H         1 <0>         0.0000
     36 H5          0.6022   -2.4064   -3.2029 H         1 <0>         0.0000
     37 H6          3.4445   -5.3628   -0.6369 H         1 <0>         0.0000
     38 H7          1.7735   -5.8804   -0.3920 H         1 <0>         0.0000
     39 H8         -0.1524   -3.9705   -0.6847 H         1 <0>         0.0000
     40 H9          0.9430   -4.4864   -1.9618 H         1 <0>         0.0000
     41 H10         4.0144   -3.1796    4.4653 H         1 <0>         0.0000
     42 H11         5.3994   -3.4390    3.3963 H         1 <0>         0.0000
     43 H12         5.8694   -5.3151    4.6450 H         1 <0>         0.0000
     44 H13         4.3104   -5.2623    5.4714 H         1 <0>         0.0000
     45 H14         4.2678   -3.2271    0.9157 H         1 <0>         0.0000
     46 H15         1.3362   -4.1106    1.1841 H         1 <0>         0.0000
     47 H16         2.5535   -4.4515    3.1073 H         1 <0>         0.0000
     48 H17         3.2283   -6.6104    3.9404 H         1 <0>         0.0000
     49 H18         3.2850   -3.6286   -2.0152 H         1 <0>         0.0000
     50 H19         3.7697   -2.2435   -1.0182 H         1 <0>         0.0000
     51 H20         2.6102   -2.0207   -2.3426 H         1 <0>         0.0000
     52 H21         6.2005   -5.2008    2.0953 H         1 <0>         0.0000
     53 H22         5.3355   -5.0069    0.5586 H         1 <0>         0.0000
     54 H23         5.7248   -6.6306    1.1587 H         1 <0>         0.0000
     55 H24         3.4984   -8.9472    2.9564 H         1 <0>         0.0000
     56 H25         5.1358   -9.5663    2.6762 H         1 <0>         0.0000
     57 H26         4.4862   -8.2713    1.6553 H         1 <0>         0.0000
     58 H27         6.3089   -9.6019    6.2642 H         1 <0>         0.0000
     59 H28         6.2377  -10.0159    4.5636 H         1 <0>         0.0000
     60 H29         5.2482   -7.3872    5.7883 H         1 <0>         0.0000
     61 H30         4.2124   -8.7226    5.2963 H         1 <0>         0.0000
     62 H31         7.7900   -7.6492    5.7479 H         1 <0>         0.0000
     63 H32         7.7405   -8.0876    4.0207 H         1 <0>         0.0000
     64 H33         6.0978   -7.3661    3.3127 H         1 <0>         0.0000
@<TRIPOS>BOND
     1    1    3 2
     2    1    4 1
     3    2    4 2
     4    2    5 1
     5    3   12 1
     6    4   16 1
     7    5    7 1
     8    5   26 2
     9    6    8 1
    10    6   17 1
    11    6   27 2
    12    7    9 1
    13    8   13 1
    14    9   16 1
    15   10   11 1
    16   10   14 1
    17   11   15 1
    18   12   13 1
    19   12   14 1
    20   13   16 1
    21   14   17 1
    22   15   17 1
    23   15   24 1
    24   16   18 1
    25   17   19 1
    26   20   24 1
    27   21   22 1
    28   21   23 1
    29   22   24 1
    30   23   30 1
    31   25   31 1
    32   28   31 2
    33   29   31 2
    34   30   31 1
    35    1   32 1
    36    2   33 1
    37    3   34 1
    38    7   35 1
    39    7   36 1
    40    8   37 1
    41    8   38 1
    42    9   39 1
    43    9   40 1
    44   10   41 1
    45   10   42 1
    46   11   43 1
    47   11   44 1
    48   12   45 1
    49   13   46 1
    50   14   47 1
    51   15   48 1
    52   18   49 1
    53   18   50 1
    54   18   51 1
    55   19   52 1
    56   19   53 1
    57   19   54 1
    58   20   55 1
    59   20   56 1
    60   20   57 1
    61   21   58 1
    62   21   59 1
    63   22   60 1
    64   22   61 1
    65   23   62 1
    66   23   63 1
    67   24   64 1
@<TRIPOS>MOLECULE
DKPES_CSD_MMMF_1_6
   64    67     0     0     0
SMALL
USER_CHARGES

@<TRIPOS>ATOM
      1 C1          2.0121   -1.2143    1.2319 C.2       1 <0>        -0.1500
      2 C2          0.3162   -0.9298   -0.4630 C.2       1 <0>        -0.1356
      3 C3          2.9245   -1.9459    1.8863 C.2       1 <0>        -0.2882
      4 C4          1.3270   -1.6661    0.0290 C.2       1 <0>        -0.1382
      5 C5         -0.4261   -1.3440   -1.6772 C.2       1 <0>         0.4946
      6 C6          3.0520   -6.2645    1.2605 C.2       1 <0>         0.4480
      7 C7         -0.0521   -2.6371   -2.3563 C.3       1 <0>         0.0610
      8 C8          2.6249   -5.3856    0.0869 C.3       1 <0>         0.0610
      9 C9          0.6099   -3.6118   -1.3906 C.3       1 <0>         0.0000
     10 C10         4.4784   -3.8939    3.7777 C.3       1 <0>         0.0000
     11 C11         4.7891   -5.2227    4.4865 C.3       1 <0>         0.0000
     12 C12         3.3262   -3.3340    1.4645 C.3       1 <0>         0.1382
     13 C13         2.2273   -3.9675    0.5485 C.3       1 <0>         0.0000
     14 C14         3.5426   -4.2948    2.6428 C.3       1 <0>         0.0000
     15 C15         4.2322   -6.3446    3.5783 C.3       1 <0>         0.0000
     16 C16         1.7910   -2.9885   -0.5996 C.3       1 <0>         0.1382
     17 C17         4.0987   -5.6679    2.1953 C.3       1 <0>         0.0610
     18 C18         2.9581   -2.6968   -1.5724 C.3       1 <0>         0.0000
     19 C19         5.4441   -5.6231    1.4437 C.3       1 <0>         0.0000
     20 C20         4.5183   -8.6617    2.6779 C.3       1 <0>         0.0000
     21 C21         6.3229   -9.1702    5.2571 C.3       1 <0>         0.0000
     22 C22         5.1520   -8.2058    5.0632 C.3       1 <0>         0.0000
     23 C23         6.3373   -9.7563    6.6629 C.3       1 <0>         0.2800
     24 C24         5.0782   -7.6104    3.6426 C.3       1 <0>         0.0000
     25 O1          8.8594   -9.1998    7.8970 O.3       1 <0>        -0.8167
     26 O2         -1.3014   -0.6098   -2.1336 O.2       1 <0>        -0.5700
     27 O3          2.6287   -7.4120    1.3872 O.2       1 <0>        -0.5700
     28 O4          7.7987   -7.4011    9.1858 O.2       1 <0>        -0.8167
     29 O5          8.1682   -7.1225    6.7760 O.2       1 <0>        -0.8167
     30 O6          6.4736   -8.6975    7.6007 O.3       1 <0>        -0.4637
     31 S1          7.9552   -8.0509    7.8854 S.o2      1 <0>         1.6337
     32 H1          1.7714   -0.2251    1.6135 H         1 <0>         0.1500
     33 H2          0.0003    0.0002   -0.0001 H         1 <0>         0.1500
     34 H3          3.4155   -1.5047    2.7491 H         1 <0>         0.1500
     35 H4         -0.9660   -3.0949   -2.7512 H         1 <0>         0.0000
     36 H5          0.6022   -2.4064   -3.2029 H         1 <0>         0.0000
     37 H6          3.4445   -5.3628   -0.6369 H         1 <0>         0.0000
     38 H7          1.7735   -5.8804   -0.3920 H         1 <0>         0.0000
     39 H8         -0.1524   -3.9705   -0.6847 H         1 <0>         0.0000
     40 H9          0.9430   -4.4864   -1.9618 H         1 <0>         0.0000
     41 H10         4.0144   -3.1796    4.4653 H         1 <0>         0.0000
     42 H11         5.3994   -3.4390    3.3963 H         1 <0>         0.0000
     43 H12         5.8694   -5.3151    4.6450 H         1 <0>         0.0000
     44 H13         4.3104   -5.2623    5.4714 H         1 <0>         0.0000
     45 H14         4.2678   -3.2271    0.9157 H         1 <0>         0.0000
     46 H15         1.3362   -4.1106    1.1841 H         1 <0>         0.0000
     47 H16         2.5535   -4.4515    3.1073 H         1 <0>         0.0000
     48 H17         3.2283   -6.6104    3.9404 H         1 <0>         0.0000
     49 H18         3.2850   -3.6286   -2.0152 H         1 <0>         0.0000
     50 H19         3.7697   -2.2435   -1.0182 H         1 <0>         0.0000
     51 H20         2.6102   -2.0207   -2.3426 H         1 <0>         0.0000
     52 H21         6.2005   -5.2008    2.0953 H         1 <0>         0.0000
     53 H22         5.3355   -5.0069    0.5586 H         1 <0>         0.0000
     54 H23         5.7248   -6.6306    1.1587 H         1 <0>         0.0000
     55 H24         3.4984   -8.9472    2.9564 H         1 <0>         0.0000
     56 H25         5.1358   -9.5663    2.6762 H         1 <0>         0.0000
     57 H26         4.4862   -8.2713    1.6553 H         1 <0>         0.0000
     58 H27         6.2743   -9.9919    4.5337 H         1 <0>         0.0000
     59 H28         7.2737   -8.6565    5.0689 H         1 <0>         0.0000
     60 H29         5.2482   -7.3872    5.7883 H         1 <0>         0.0000
     61 H30         4.2124   -8.7226    5.2963 H         1 <0>         0.0000
     62 H31         7.1790  -10.4446    6.7899 H         1 <0>         0.0000
     63 H32         5.4051  -10.2899    6.8740 H         1 <0>         0.0000
     64 H33         6.0978   -7.3661    3.3127 H         1 <0>         0.0000
@<TRIPOS>BOND
     1    1    3 2
     2    1    4 1
     3    2    4 2
     4    2    5 1
     5    3   12 1
     6    4   16 1
     7    5    7 1
     8    5   26 2
     9    6    8 1
    10    6   17 1
    11    6   27 2
    12    7    9 1
    13    8   13 1
    14    9   16 1
    15   10   11 1
    16   10   14 1
    17   11   15 1
    18   12   13 1
    19   12   14 1
    20   13   16 1
    21   14   17 1
    22   15   17 1
    23   15   24 1
    24   16   18 1
    25   17   19 1
    26   20   24 1
    27   21   22 1
    28   21   23 1
    29   22   24 1
    30   23   30 1
    31   25   31 1
    32   28   31 2
    33   29   31 2
    34   30   31 1
    35    1   32 1
    36    2   33 1
    37    3   34 1
    38    7   35 1
    39    7   36 1
    40    8   37 1
    41    8   38 1
    42    9   39 1
    43    9   40 1
    44   10   41 1
    45   10   42 1
    46   11   43 1
    47   11   44 1
    48   12   45 1
    49   13   46 1
    50   14   47 1
    51   15   48 1
    52   18   49 1
    53   18   50 1
    54   18   51 1
    55   19   52 1
    56   19   53 1
    57   19   54 1
    58   20   55 1
    59   20   56 1
    60   20   57 1
    61   21   58 1
    62   21   59 1
    63   22   60 1
    64   22   61 1
    65   23   62 1
    66   23   63 1
    67   24   64 1
@<TRIPOS>MOLECULE
DKPES_CSD_MMMF_1_7
   64    67     0     0     0
SMALL
USER_CHARGES

@<TRIPOS>ATOM
      1 C1          2.0121   -1.2143    1.2319 C.2       1 <0>        -0.1500
      2 C2          0.3162   -0.9298   -0.4630 C.2       1 <0>        -0.1356
      3 C3          2.9245   -1.9459    1.8863 C.2       1 <0>        -0.2882
      4 C4          1.3270   -1.6661    0.0290 C.2       1 <0>        -0.1382
      5 C5         -0.4261   -1.3440   -1.6772 C.2       1 <0>         0.4946
      6 C6          3.0520   -6.2645    1.2605 C.2       1 <0>         0.4480
      7 C7         -0.0521   -2.6371   -2.3563 C.3       1 <0>         0.0610
      8 C8          2.6249   -5.3856    0.0869 C.3       1 <0>         0.0610
      9 C9          0.6099   -3.6118   -1.3906 C.3       1 <0>         0.0000
     10 C10         4.4784   -3.8939    3.7777 C.3       1 <0>         0.0000
     11 C11         4.7891   -5.2227    4.4865 C.3       1 <0>         0.0000
     12 C12         3.3262   -3.3340    1.4645 C.3       1 <0>         0.1382
     13 C13         2.2273   -3.9675    0.5485 C.3       1 <0>         0.0000
     14 C14         3.5426   -4.2948    2.6428 C.3       1 <0>         0.0000
     15 C15         4.2322   -6.3446    3.5783 C.3       1 <0>         0.0000
     16 C16         1.7910   -2.9885   -0.5996 C.3       1 <0>         0.1382
     17 C17         4.0987   -5.6679    2.1953 C.3       1 <0>         0.0610
     18 C18         2.9581   -2.6968   -1.5724 C.3       1 <0>         0.0000
     19 C19         5.4441   -5.6231    1.4437 C.3       1 <0>         0.0000
     20 C20         4.5183   -8.6617    2.6779 C.3       1 <0>         0.0000
     21 C21         6.3229   -9.1702    5.2571 C.3       1 <0>         0.0000
     22 C22         5.1520   -8.2058    5.0632 C.3       1 <0>         0.0000
     23 C23         6.3373   -9.7563    6.6629 C.3       1 <0>         0.2800
     24 C24         5.0782   -7.6104    3.6426 C.3       1 <0>         0.0000
     25 O1          5.9459  -12.5881    6.5141 O.3       1 <0>        -0.8167
     26 O2         -1.3014   -0.6098   -2.1336 O.2       1 <0>        -0.5700
     27 O3          2.6287   -7.4120    1.3872 O.2       1 <0>        -0.5700
     28 O4          8.3504  -12.9103    6.8830 O.2       1 <0>        -0.8167
     29 O5          7.5521  -12.0209    4.7399 O.2       1 <0>        -0.8167
     30 O6          7.4346  -10.6521    6.7758 O.3       1 <0>        -0.4637
     31 S1          7.3059  -12.1735    6.1730 S.o2      1 <0>         1.6337
     32 H1          1.7714   -0.2251    1.6135 H         1 <0>         0.1500
     33 H2          0.0003    0.0002   -0.0001 H         1 <0>         0.1500
     34 H3          3.4155   -1.5047    2.7491 H         1 <0>         0.1500
     35 H4         -0.9660   -3.0949   -2.7512 H         1 <0>         0.0000
     36 H5          0.6022   -2.4064   -3.2029 H         1 <0>         0.0000
     37 H6          3.4445   -5.3628   -0.6369 H         1 <0>         0.0000
     38 H7          1.7735   -5.8804   -0.3920 H         1 <0>         0.0000
     39 H8         -0.1524   -3.9705   -0.6847 H         1 <0>         0.0000
     40 H9          0.9430   -4.4864   -1.9618 H         1 <0>         0.0000
     41 H10         4.0144   -3.1796    4.4653 H         1 <0>         0.0000
     42 H11         5.3994   -3.4390    3.3963 H         1 <0>         0.0000
     43 H12         5.8694   -5.3151    4.6450 H         1 <0>         0.0000
     44 H13         4.3104   -5.2623    5.4714 H         1 <0>         0.0000
     45 H14         4.2678   -3.2271    0.9157 H         1 <0>         0.0000
     46 H15         1.3362   -4.1106    1.1841 H         1 <0>         0.0000
     47 H16         2.5535   -4.4515    3.1073 H         1 <0>         0.0000
     48 H17         3.2283   -6.6104    3.9404 H         1 <0>         0.0000
     49 H18         3.2850   -3.6286   -2.0152 H         1 <0>         0.0000
     50 H19         3.7697   -2.2435   -1.0182 H         1 <0>         0.0000
     51 H20         2.6102   -2.0207   -2.3426 H         1 <0>         0.0000
     52 H21         6.2005   -5.2008    2.0953 H         1 <0>         0.0000
     53 H22         5.3355   -5.0069    0.5586 H         1 <0>         0.0000
     54 H23         5.7248   -6.6306    1.1587 H         1 <0>         0.0000
     55 H24         3.4984   -8.9472    2.9564 H         1 <0>         0.0000
     56 H25         5.1358   -9.5663    2.6762 H         1 <0>         0.0000
     57 H26         4.4862   -8.2713    1.6553 H         1 <0>         0.0000
     58 H27         6.2743   -9.9919    4.5337 H         1 <0>         0.0000
     59 H28         7.2737   -8.6565    5.0689 H         1 <0>         0.0000
     60 H29         5.2482   -7.3872    5.7883 H         1 <0>         0.0000
     61 H30         4.2124   -8.7226    5.2963 H         1 <0>         0.0000
     62 H31         5.4142  -10.3091    6.8645 H         1 <0>         0.0000
     63 H32         6.4529   -8.9686    7.4141 H         1 <0>         0.0000
     64 H33         6.0978   -7.3661    3.3127 H         1 <0>         0.0000
@<TRIPOS>BOND
     1    1    3 2
     2    1    4 1
     3    2    4 2
     4    2    5 1
     5    3   12 1
     6    4   16 1
     7    5    7 1
     8    5   26 2
     9    6    8 1
    10    6   17 1
    11    6   27 2
    12    7    9 1
    13    8   13 1
    14    9   16 1
    15   10   11 1
    16   10   14 1
    17   11   15 1
    18   12   13 1
    19   12   14 1
    20   13   16 1
    21   14   17 1
    22   15   17 1
    23   15   24 1
    24   16   18 1
    25   17   19 1
    26   20   24 1
    27   21   22 1
    28   21   23 1
    29   22   24 1
    30   23   30 1
    31   25   31 1
    32   28   31 2
    33   29   31 2
    34   30   31 1
    35    1   32 1
    36    2   33 1
    37    3   34 1
    38    7   35 1
    39    7   36 1
    40    8   37 1
    41    8   38 1
    42    9   39 1
    43    9   40 1
    44   10   41 1
    45   10   42 1
    46   11   43 1
    47   11   44 1
    48   12   45 1
    49   13   46 1
    50   14   47 1
    51   15   48 1
    52   18   49 1
    53   18   50 1
    54   18   51 1
    55   19   52 1
    56   19   53 1
    57   19   54 1
    58   20   55 1
    59   20   56 1
    60   20   57 1
    61   21   58 1
    62   21   59 1
    63   22   60 1
    64   22   61 1
    65   23   62 1
    66   23   63 1
    67   24   64 1
@<TRIPOS>MOLECULE
DKPES_CSD_MMMF_1_8
   64    67     0     0     0
SMALL
USER_CHARGES

@<TRIPOS>ATOM
      1 C1          2.0121   -1.2143    1.2319 C.2       1 <0>        -0.1500
      2 C2          0.3162   -0.9298   -0.4630 C.2       1 <0>        -0.1356
      3 C3          2.9245   -1.9459    1.8863 C.2       1 <0>        -0.2882
      4 C4          1.3270   -1.6661    0.0290 C.2       1 <0>        -0.1382
      5 C5         -0.4261   -1.3440   -1.6772 C.2       1 <0>         0.4946
      6 C6          3.0520   -6.2645    1.2605 C.2       1 <0>         0.4480
      7 C7         -0.0521   -2.6371   -2.3563 C.3       1 <0>         0.0610
      8 C8          2.6249   -5.3856    0.0869 C.3       1 <0>         0.0610
      9 C9          0.6099   -3.6118   -1.3906 C.3       1 <0>         0.0000
     10 C10         4.4784   -3.8939    3.7777 C.3       1 <0>         0.0000
     11 C11         4.7891   -5.2227    4.4865 C.3       1 <0>         0.0000
     12 C12         3.3262   -3.3340    1.4645 C.3       1 <0>         0.1382
     13 C13         2.2273   -3.9675    0.5485 C.3       1 <0>         0.0000
     14 C14         3.5426   -4.2948    2.6428 C.3       1 <0>         0.0000
     15 C15         4.2322   -6.3446    3.5783 C.3       1 <0>         0.0000
     16 C16         1.7910   -2.9885   -0.5996 C.3       1 <0>         0.1382
     17 C17         4.0987   -5.6679    2.1953 C.3       1 <0>         0.0610
     18 C18         2.9581   -2.6968   -1.5724 C.3       1 <0>         0.0000
     19 C19         5.4441   -5.6231    1.4437 C.3       1 <0>         0.0000
     20 C20         4.5183   -8.6617    2.6779 C.3       1 <0>         0.0000
     21 C21         6.3229   -9.1702    5.2571 C.3       1 <0>         0.0000
     22 C22         5.1520   -8.2058    5.0632 C.3       1 <0>         0.0000
     23 C23         6.3373   -9.7563    6.6629 C.3       1 <0>         0.2800
     24 C24         5.0782   -7.6104    3.6426 C.3       1 <0>         0.0000
     25 O1          8.7468   -8.9707    7.9937 O.3       1 <0>        -0.8167
     26 O2         -1.3014   -0.6098   -2.1336 O.2       1 <0>        -0.5700
     27 O3          2.6287   -7.4120    1.3872 O.2       1 <0>        -0.5700
     28 O4          9.3705   -9.6191    5.7107 O.2       1 <0>        -0.8167
     29 O5          9.6970  -11.1976    7.5608 O.2       1 <0>        -0.8167
     30 O6          7.4346  -10.6521    6.7758 O.3       1 <0>        -0.4637
     31 S1          8.9427  -10.0595    7.0377 S.o2      1 <0>         1.6337
     32 H1          1.7714   -0.2251    1.6135 H         1 <0>         0.1500
     33 H2          0.0003    0.0002   -0.0001 H         1 <0>         0.1500
     34 H3          3.4155   -1.5047    2.7491 H         1 <0>         0.1500
     35 H4         -0.9660   -3.0949   -2.7512 H         1 <0>         0.0000
     36 H5          0.6022   -2.4064   -3.2029 H         1 <0>         0.0000
     37 H6          3.4445   -5.3628   -0.6369 H         1 <0>         0.0000
     38 H7          1.7735   -5.8804   -0.3920 H         1 <0>         0.0000
     39 H8         -0.1524   -3.9705   -0.6847 H         1 <0>         0.0000
     40 H9          0.9430   -4.4864   -1.9618 H         1 <0>         0.0000
     41 H10         4.0144   -3.1796    4.4653 H         1 <0>         0.0000
     42 H11         5.3994   -3.4390    3.3963 H         1 <0>         0.0000
     43 H12         5.8694   -5.3151    4.6450 H         1 <0>         0.0000
     44 H13         4.3104   -5.2623    5.4714 H         1 <0>         0.0000
     45 H14         4.2678   -3.2271    0.9157 H         1 <0>         0.0000
     46 H15         1.3362   -4.1106    1.1841 H         1 <0>         0.0000
     47 H16         2.5535   -4.4515    3.1073 H         1 <0>         0.0000
     48 H17         3.2283   -6.6104    3.9404 H         1 <0>         0.0000
     49 H18         3.2850   -3.6286   -2.0152 H         1 <0>         0.0000
     50 H19         3.7697   -2.2435   -1.0182 H         1 <0>         0.0000
     51 H20         2.6102   -2.0207   -2.3426 H         1 <0>         0.0000
     52 H21         6.2005   -5.2008    2.0953 H         1 <0>         0.0000
     53 H22         5.3355   -5.0069    0.5586 H         1 <0>         0.0000
     54 H23         5.7248   -6.6306    1.1587 H         1 <0>         0.0000
     55 H24         3.4984   -8.9472    2.9564 H         1 <0>         0.0000
     56 H25         5.1358   -9.5663    2.6762 H         1 <0>         0.0000
     57 H26         4.4862   -8.2713    1.6553 H         1 <0>         0.0000
     58 H27         6.2743   -9.9919    4.5337 H         1 <0>         0.0000
     59 H28         7.2737   -8.6565    5.0689 H         1 <0>         0.0000
     60 H29         5.2482   -7.3872    5.7883 H         1 <0>         0.0000
     61 H30         4.2124   -8.7226    5.2963 H         1 <0>         0.0000
     62 H31         5.4142  -10.3091    6.8645 H         1 <0>         0.0000
     63 H32         6.4529   -8.9686    7.4141 H         1 <0>         0.0000
     64 H33         6.0978   -7.3661    3.3127 H         1 <0>         0.0000
@<TRIPOS>BOND
     1    1    3 2
     2    1    4 1
     3    2    4 2
     4    2    5 1
     5    3   12 1
     6    4   16 1
     7    5    7 1
     8    5   26 2
     9    6    8 1
    10    6   17 1
    11    6   27 2
    12    7    9 1
    13    8   13 1
    14    9   16 1
    15   10   11 1
    16   10   14 1
    17   11   15 1
    18   12   13 1
    19   12   14 1
    20   13   16 1
    21   14   17 1
    22   15   17 1
    23   15   24 1
    24   16   18 1
    25   17   19 1
    26   20   24 1
    27   21   22 1
    28   21   23 1
    29   22   24 1
    30   23   30 1
    31   25   31 1
    32   28   31 2
    33   29   31 2
    34   30   31 1
    35    1   32 1
    36    2   33 1
    37    3   34 1
    38    7   35 1
    39    7   36 1
    40    8   37 1
    41    8   38 1
    42    9   39 1
    43    9   40 1
    44   10   41 1
    45   10   42 1
    46   11   43 1
    47   11   44 1
    48   12   45 1
    49   13   46 1
    50   14   47 1
    51   15   48 1
    52   18   49 1
    53   18   50 1
    54   18   51 1
    55   19   52 1
    56   19   53 1
    57   19   54 1
    58   20   55 1
    59   20   56 1
    60   20   57 1
    61   21   58 1
    62   21   59 1
    63   22   60 1
    64   22   61 1
    65   23   62 1
    66   23   63 1
    67   24   64 1
@<TRIPOS>MOLECULE
DKPES_CSD_MMMF_1_9
   64    67     0     0     0
SMALL
USER_CHARGES

@<TRIPOS>ATOM
      1 C1          2.0121   -1.2143    1.2319 C.2       1 <0>        -0.1500
      2 C2          0.3162   -0.9298   -0.4630 C.2       1 <0>        -0.1356
      3 C3          2.9245   -1.9459    1.8863 C.2       1 <0>        -0.2882
      4 C4          1.3270   -1.6661    0.0290 C.2       1 <0>        -0.1382
      5 C5         -0.4261   -1.3440   -1.6772 C.2       1 <0>         0.4946
      6 C6          3.0520   -6.2645    1.2605 C.2       1 <0>         0.4480
      7 C7         -0.0521   -2.6371   -2.3563 C.3       1 <0>         0.0610
      8 C8          2.6249   -5.3856    0.0869 C.3       1 <0>         0.0610
      9 C9          0.6099   -3.6118   -1.3906 C.3       1 <0>         0.0000
     10 C10         4.4784   -3.8939    3.7777 C.3       1 <0>         0.0000
     11 C11         4.7891   -5.2227    4.4865 C.3       1 <0>         0.0000
     12 C12         3.3262   -3.3340    1.4645 C.3       1 <0>         0.1382
     13 C13         2.2273   -3.9675    0.5485 C.3       1 <0>         0.0000
     14 C14         3.5426   -4.2948    2.6428 C.3       1 <0>         0.0000
     15 C15         4.2322   -6.3446    3.5783 C.3       1 <0>         0.0000
     16 C16         1.7910   -2.9885   -0.5996 C.3       1 <0>         0.1382
     17 C17         4.0987   -5.6679    2.1953 C.3       1 <0>         0.0610
     18 C18         2.9581   -2.6968   -1.5724 C.3       1 <0>         0.0000
     19 C19         5.4441   -5.6231    1.4437 C.3       1 <0>         0.0000
     20 C20         4.5183   -8.6617    2.6779 C.3       1 <0>         0.0000
     21 C21         5.5328   -9.6867    5.0816 C.3       1 <0>         0.0000
     22 C22         5.1520   -8.2058    5.0632 C.3       1 <0>         0.0000
     23 C23         5.5627  -10.2385    6.5010 C.3       1 <0>         0.2800
     24 C24         5.0782   -7.6104    3.6426 C.3       1 <0>         0.0000
     25 O1          6.3796  -13.8259    7.4137 O.3       1 <0>        -0.8167
     26 O2         -1.3014   -0.6098   -2.1336 O.2       1 <0>        -0.5700
     27 O3          2.6287   -7.4120    1.3872 O.2       1 <0>        -0.5700
     28 O4          4.6711  -12.3751    8.4126 O.2       1 <0>        -0.8167
     29 O5          7.0448  -11.7886    8.6205 O.2       1 <0>        -0.8167
     30 O6          5.9065  -11.6164    6.4510 O.3       1 <0>        -0.4637
     31 S1          6.0145  -12.4772    7.8445 S.o2      1 <0>         1.6337
     32 H1          1.7714   -0.2251    1.6135 H         1 <0>         0.1500
     33 H2          0.0003    0.0002   -0.0001 H         1 <0>         0.1500
     34 H3          3.4155   -1.5047    2.7491 H         1 <0>         0.1500
     35 H4         -0.9660   -3.0949   -2.7512 H         1 <0>         0.0000
     36 H5          0.6022   -2.4064   -3.2029 H         1 <0>         0.0000
     37 H6          3.4445   -5.3628   -0.6369 H         1 <0>         0.0000
     38 H7          1.7735   -5.8804   -0.3920 H         1 <0>         0.0000
     39 H8         -0.1524   -3.9705   -0.6847 H         1 <0>         0.0000
     40 H9          0.9430   -4.4864   -1.9618 H         1 <0>         0.0000
     41 H10         4.0144   -3.1796    4.4653 H         1 <0>         0.0000
     42 H11         5.3994   -3.4390    3.3963 H         1 <0>         0.0000
     43 H12         5.8694   -5.3151    4.6450 H         1 <0>         0.0000
     44 H13         4.3104   -5.2623    5.4714 H         1 <0>         0.0000
     45 H14         4.2678   -3.2271    0.9157 H         1 <0>         0.0000
     46 H15         1.3362   -4.1106    1.1841 H         1 <0>         0.0000
     47 H16         2.5535   -4.4515    3.1073 H         1 <0>         0.0000
     48 H17         3.2283   -6.6104    3.9404 H         1 <0>         0.0000
     49 H18         3.2850   -3.6286   -2.0152 H         1 <0>         0.0000
     50 H19         3.7697   -2.2435   -1.0182 H         1 <0>         0.0000
     51 H20         2.6102   -2.0207   -2.3426 H         1 <0>         0.0000
     52 H21         6.2005   -5.2008    2.0953 H         1 <0>         0.0000
     53 H22         5.3355   -5.0069    0.5586 H         1 <0>         0.0000
     54 H23         5.7248   -6.6306    1.1587 H         1 <0>         0.0000
     55 H24         3.4984   -8.9472    2.9564 H         1 <0>         0.0000
     56 H25         5.1358   -9.5663    2.6762 H         1 <0>         0.0000
     57 H26         4.4862   -8.2713    1.6553 H         1 <0>         0.0000
     58 H27         4.8255  -10.2780    4.4891 H         1 <0>         0.0000
     59 H28         6.5150   -9.8326    4.6154 H         1 <0>         0.0000
     60 H29         5.8943   -7.6456    5.6465 H         1 <0>         0.0000
     61 H30         4.1882   -8.0715    5.5705 H         1 <0>         0.0000
     62 H31         4.5823  -10.1413    6.9781 H         1 <0>         0.0000
     63 H32         6.3085   -9.7160    7.1084 H         1 <0>         0.0000
     64 H33         6.0978   -7.3661    3.3127 H         1 <0>         0.0000
@<TRIPOS>BOND
     1    1    3 2
     2    1    4 1
     3    2    4 2
     4    2    5 1
     5    3   12 1
     6    4   16 1
     7    5    7 1
     8    5   26 2
     9    6    8 1
    10    6   17 1
    11    6   27 2
    12    7    9 1
    13    8   13 1
    14    9   16 1
    15   10   11 1
    16   10   14 1
    17   11   15 1
    18   12   13 1
    19   12   14 1
    20   13   16 1
    21   14   17 1
    22   15   17 1
    23   15   24 1
    24   16   18 1
    25   17   19 1
    26   20   24 1
    27   21   22 1
    28   21   23 1
    29   22   24 1
    30   23   30 1
    31   25   31 1
    32   28   31 2
    33   29   31 2
    34   30   31 1
    35    1   32 1
    36    2   33 1
    37    3   34 1
    38    7   35 1
    39    7   36 1
    40    8   37 1
    41    8   38 1
    42    9   39 1
    43    9   40 1
    44   10   41 1
    45   10   42 1
    46   11   43 1
    47   11   44 1
    48   12   45 1
    49   13   46 1
    50   14   47 1
    51   15   48 1
    52   18   49 1
    53   18   50 1
    54   18   51 1
    55   19   52 1
    56   19   53 1
    57   19   54 1
    58   20   55 1
    59   20   56 1
    60   20   57 1
    61   21   58 1
    62   21   59 1
    63   22   60 1
    64   22   61 1
    65   23   62 1
    66   23   63 1
    67   24   64 1
@<TRIPOS>MOLECULE
DKPES_CSD_MMMF_1_10
   64    67     0     0     0
SMALL
USER_CHARGES

@<TRIPOS>ATOM
      1 C1          2.0121   -1.2143    1.2319 C.2       1 <0>        -0.1500
      2 C2          0.3162   -0.9298   -0.4630 C.2       1 <0>        -0.1356
      3 C3          2.9245   -1.9459    1.8863 C.2       1 <0>        -0.2882
      4 C4          1.3270   -1.6661    0.0290 C.2       1 <0>        -0.1382
      5 C5         -0.4261   -1.3440   -1.6772 C.2       1 <0>         0.4946
      6 C6          3.0520   -6.2645    1.2605 C.2       1 <0>         0.4480
      7 C7         -0.0521   -2.6371   -2.3563 C.3       1 <0>         0.0610
      8 C8          2.6249   -5.3856    0.0869 C.3       1 <0>         0.0610
      9 C9          0.6099   -3.6118   -1.3906 C.3       1 <0>         0.0000
     10 C10         4.4784   -3.8939    3.7777 C.3       1 <0>         0.0000
     11 C11         4.7891   -5.2227    4.4865 C.3       1 <0>         0.0000
     12 C12         3.3262   -3.3340    1.4645 C.3       1 <0>         0.1382
     13 C13         2.2273   -3.9675    0.5485 C.3       1 <0>         0.0000
     14 C14         3.5426   -4.2948    2.6428 C.3       1 <0>         0.0000
     15 C15         4.2322   -6.3446    3.5783 C.3       1 <0>         0.0000
     16 C16         1.7910   -2.9885   -0.5996 C.3       1 <0>         0.1382
     17 C17         4.0987   -5.6679    2.1953 C.3       1 <0>         0.0610
     18 C18         2.9581   -2.6968   -1.5724 C.3       1 <0>         0.0000
     19 C19         5.4441   -5.6231    1.4437 C.3       1 <0>         0.0000
     20 C20         4.5183   -8.6617    2.6779 C.3       1 <0>         0.0000
     21 C21         5.9758   -9.4919    5.1403 C.3       1 <0>         0.0000
     22 C22         5.1520   -8.2058    5.0632 C.3       1 <0>         0.0000
     23 C23         7.4225   -9.2547    4.7271 C.3       1 <0>         0.2800
     24 C24         5.0782   -7.6104    3.6426 C.3       1 <0>         0.0000
     25 O1          8.0146  -10.8198    2.4046 O.3       1 <0>        -0.8167
     26 O2         -1.3014   -0.6098   -2.1336 O.2       1 <0>        -0.5700
     27 O3          2.6287   -7.4120    1.3872 O.2       1 <0>        -0.5700
     28 O4          6.7359  -12.2573    3.9278 O.2       1 <0>        -0.8167
     29 O5          9.1792  -12.4586    3.8215 O.2       1 <0>        -0.8167
     30 O6          8.1372  -10.4782    4.8338 O.3       1 <0>        -0.4637
     31 S1          8.0099  -11.5993    3.6416 S.o2      1 <0>         1.6337
     32 H1          1.7714   -0.2251    1.6135 H         1 <0>         0.1500
     33 H2          0.0003    0.0002   -0.0001 H         1 <0>         0.1500
     34 H3          3.4155   -1.5047    2.7491 H         1 <0>         0.1500
     35 H4         -0.9660   -3.0949   -2.7512 H         1 <0>         0.0000
     36 H5          0.6022   -2.4064   -3.2029 H         1 <0>         0.0000
     37 H6          3.4445   -5.3628   -0.6369 H         1 <0>         0.0000
     38 H7          1.7735   -5.8804   -0.3920 H         1 <0>         0.0000
     39 H8         -0.1524   -3.9705   -0.6847 H         1 <0>         0.0000
     40 H9          0.9430   -4.4864   -1.9618 H         1 <0>         0.0000
     41 H10         4.0144   -3.1796    4.4653 H         1 <0>         0.0000
     42 H11         5.3994   -3.4390    3.3963 H         1 <0>         0.0000
     43 H12         5.8694   -5.3151    4.6450 H         1 <0>         0.0000
     44 H13         4.3104   -5.2623    5.4714 H         1 <0>         0.0000
     45 H14         4.2678   -3.2271    0.9157 H         1 <0>         0.0000
     46 H15         1.3362   -4.1106    1.1841 H         1 <0>         0.0000
     47 H16         2.5535   -4.4515    3.1073 H         1 <0>         0.0000
     48 H17         3.2283   -6.6104    3.9404 H         1 <0>         0.0000
     49 H18         3.2850   -3.6286   -2.0152 H         1 <0>         0.0000
     50 H19         3.7697   -2.2435   -1.0182 H         1 <0>         0.0000
     51 H20         2.6102   -2.0207   -2.3426 H         1 <0>         0.0000
     52 H21         6.2005   -5.2008    2.0953 H         1 <0>         0.0000
     53 H22         5.3355   -5.0069    0.5586 H         1 <0>         0.0000
     54 H23         5.7248   -6.6306    1.1587 H         1 <0>         0.0000
     55 H24         3.4984   -8.9472    2.9564 H         1 <0>         0.0000
     56 H25         5.1358   -9.5663    2.6762 H         1 <0>         0.0000
     57 H26         4.4862   -8.2713    1.6553 H         1 <0>         0.0000
     58 H27         5.9628   -9.9021    6.1564 H         1 <0>         0.0000
     59 H28         5.5368  -10.2638    4.4961 H         1 <0>         0.0000
     60 H29         5.5971   -7.4633    5.7383 H         1 <0>         0.0000
     61 H30         4.1381   -8.4002    5.4353 H         1 <0>         0.0000
     62 H31         7.8983   -8.5154    5.3792 H         1 <0>         0.0000
     63 H32         7.4815   -8.9069    3.6908 H         1 <0>         0.0000
     64 H33         6.0978   -7.3661    3.3127 H         1 <0>         0.0000
@<TRIPOS>BOND
     1    1    3 2
     2    1    4 1
     3    2    4 2
     4    2    5 1
     5    3   12 1
     6    4   16 1
     7    5    7 1
     8    5   26 2
     9    6    8 1
    10    6   17 1
    11    6   27 2
    12    7    9 1
    13    8   13 1
    14    9   16 1
    15   10   11 1
    16   10   14 1
    17   11   15 1
    18   12   13 1
    19   12   14 1
    20   13   16 1
    21   14   17 1
    22   15   17 1
    23   15   24 1
    24   16   18 1
    25   17   19 1
    26   20   24 1
    27   21   22 1
    28   21   23 1
    29   22   24 1
    30   23   30 1
    31   25   31 1
    32   28   31 2
    33   29   31 2
    34   30   31 1
    35    1   32 1
    36    2   33 1
    37    3   34 1
    38    7   35 1
    39    7   36 1
    40    8   37 1
    41    8   38 1
    42    9   39 1
    43    9   40 1
    44   10   41 1
    45   10   42 1
    46   11   43 1
    47   11   44 1
    48   12   45 1
    49   13   46 1
    50   14   47 1
    51   15   48 1
    52   18   49 1
    53   18   50 1
    54   18   51 1
    55   19   52 1
    56   19   53 1
    57   19   54 1
    58   20   55 1
    59   20   56 1
    60   20   57 1
    61   21   58 1
    62   21   59 1
    63   22   60 1
    64   22   61 1
    65   23   62 1
    66   23   63 1
    67   24   64 1
@<TRIPOS>MOLECULE
DKPES_CSD_MMMF_1_11
   64    67     0     0     0
SMALL
USER_CHARGES

@<TRIPOS>ATOM
      1 C1          2.0121   -1.2143    1.2319 C.2       1 <0>        -0.1500
      2 C2          0.3162   -0.9298   -0.4630 C.2       1 <0>        -0.1356
      3 C3          2.9245   -1.9459    1.8863 C.2       1 <0>        -0.2882
      4 C4          1.3270   -1.6661    0.0290 C.2       1 <0>        -0.1382
      5 C5         -0.4261   -1.3440   -1.6772 C.2       1 <0>         0.4946
      6 C6          3.0520   -6.2645    1.2605 C.2       1 <0>         0.4480
      7 C7         -0.0521   -2.6371   -2.3563 C.3       1 <0>         0.0610
      8 C8          2.6249   -5.3856    0.0869 C.3       1 <0>         0.0610
      9 C9          0.6099   -3.6118   -1.3906 C.3       1 <0>         0.0000
     10 C10         4.4784   -3.8939    3.7777 C.3       1 <0>         0.0000
     11 C11         4.7891   -5.2227    4.4865 C.3       1 <0>         0.0000
     12 C12         3.3262   -3.3340    1.4645 C.3       1 <0>         0.1382
     13 C13         2.2273   -3.9675    0.5485 C.3       1 <0>         0.0000
     14 C14         3.5426   -4.2948    2.6428 C.3       1 <0>         0.0000
     15 C15         4.2322   -6.3446    3.5783 C.3       1 <0>         0.0000
     16 C16         1.7910   -2.9885   -0.5996 C.3       1 <0>         0.1382
     17 C17         4.0987   -5.6679    2.1953 C.3       1 <0>         0.0610
     18 C18         2.9581   -2.6968   -1.5724 C.3       1 <0>         0.0000
     19 C19         5.4441   -5.6231    1.4437 C.3       1 <0>         0.0000
     20 C20         4.6826   -8.4407    4.8686 C.3       1 <0>         0.0000
     21 C21         7.4569   -8.5116    3.2985 C.3       1 <0>         0.0000
     22 C22         6.5907   -7.3138    3.6905 C.3       1 <0>         0.0000
     23 C23         8.9411   -8.1821    3.3905 C.3       1 <0>         0.2800
     24 C24         5.0782   -7.6104    3.6426 C.3       1 <0>         0.0000
     25 O1         11.7504  -10.6089    2.6237 O.3       1 <0>        -0.8167
     26 O2         -1.3014   -0.6098   -2.1336 O.2       1 <0>        -0.5700
     27 O3          2.6287   -7.4120    1.3872 O.2       1 <0>        -0.5700
     28 O4         11.6516   -8.9496    4.4288 O.2       1 <0>        -0.8167
     29 O5         11.6610   -8.2098    2.0891 O.2       1 <0>        -0.8167
     30 O6          9.6907   -9.3343    3.0302 O.3       1 <0>        -0.4637
     31 S1         11.3309   -9.2713    3.0390 S.o2      1 <0>         1.6337
     32 H1          1.7714   -0.2251    1.6135 H         1 <0>         0.1500
     33 H2          0.0003    0.0002   -0.0001 H         1 <0>         0.1500
     34 H3          3.4155   -1.5047    2.7491 H         1 <0>         0.1500
     35 H4         -0.9660   -3.0949   -2.7512 H         1 <0>         0.0000
     36 H5          0.6022   -2.4064   -3.2029 H         1 <0>         0.0000
     37 H6          3.4445   -5.3628   -0.6369 H         1 <0>         0.0000
     38 H7          1.7735   -5.8804   -0.3920 H         1 <0>         0.0000
     39 H8         -0.1524   -3.9705   -0.6847 H         1 <0>         0.0000
     40 H9          0.9430   -4.4864   -1.9618 H         1 <0>         0.0000
     41 H10         4.0144   -3.1796    4.4653 H         1 <0>         0.0000
     42 H11         5.3994   -3.4390    3.3963 H         1 <0>         0.0000
     43 H12         5.8694   -5.3151    4.6450 H         1 <0>         0.0000
     44 H13         4.3104   -5.2623    5.4714 H         1 <0>         0.0000
     45 H14         4.2678   -3.2271    0.9157 H         1 <0>         0.0000
     46 H15         1.3362   -4.1106    1.1841 H         1 <0>         0.0000
     47 H16         2.5535   -4.4515    3.1073 H         1 <0>         0.0000
     48 H17         3.2283   -6.6104    3.9404 H         1 <0>         0.0000
     49 H18         3.2850   -3.6286   -2.0152 H         1 <0>         0.0000
     50 H19         3.7697   -2.2435   -1.0182 H         1 <0>         0.0000
     51 H20         2.6102   -2.0207   -2.3426 H         1 <0>         0.0000
     52 H21         6.2005   -5.2008    2.0953 H         1 <0>         0.0000
     53 H22         5.3355   -5.0069    0.5586 H         1 <0>         0.0000
     54 H23         5.7248   -6.6306    1.1587 H         1 <0>         0.0000
     55 H24         4.8689   -7.8872    5.7950 H         1 <0>         0.0000
     56 H25         5.2494   -9.3769    4.9126 H         1 <0>         0.0000
     57 H26         3.6169   -8.6907    4.8400 H         1 <0>         0.0000
     58 H27         7.2468   -9.3719    3.9440 H         1 <0>         0.0000
     59 H28         7.2199   -8.8342    2.2771 H         1 <0>         0.0000
     60 H29         6.8129   -6.4825    3.0088 H         1 <0>         0.0000
     61 H30         6.8694   -6.9772    4.6971 H         1 <0>         0.0000
     62 H31         9.2143   -7.8938    4.4106 H         1 <0>         0.0000
     63 H32         9.2044   -7.3684    2.7071 H         1 <0>         0.0000
     64 H33         4.8690   -8.2160    2.7494 H         1 <0>         0.0000
@<TRIPOS>BOND
     1    1    3 2
     2    1    4 1
     3    2    4 2
     4    2    5 1
     5    3   12 1
     6    4   16 1
     7    5    7 1
     8    5   26 2
     9    6    8 1
    10    6   17 1
    11    6   27 2
    12    7    9 1
    13    8   13 1
    14    9   16 1
    15   10   11 1
    16   10   14 1
    17   11   15 1
    18   12   13 1
    19   12   14 1
    20   13   16 1
    21   14   17 1
    22   15   17 1
    23   15   24 1
    24   16   18 1
    25   17   19 1
    26   20   24 1
    27   21   22 1
    28   21   23 1
    29   22   24 1
    30   23   30 1
    31   25   31 1
    32   28   31 2
    33   29   31 2
    34   30   31 1
    35    1   32 1
    36    2   33 1
    37    3   34 1
    38    7   35 1
    39    7   36 1
    40    8   37 1
    41    8   38 1
    42    9   39 1
    43    9   40 1
    44   10   41 1
    45   10   42 1
    46   11   43 1
    47   11   44 1
    48   12   45 1
    49   13   46 1
    50   14   47 1
    51   15   48 1
    52   18   49 1
    53   18   50 1
    54   18   51 1
    55   19   52 1
    56   19   53 1
    57   19   54 1
    58   20   55 1
    59   20   56 1
    60   20   57 1
    61   21   58 1
    62   21   59 1
    63   22   60 1
    64   22   61 1
    65   23   62 1
    66   23   63 1
    67   24   64 1
@<TRIPOS>MOLECULE
DKPES_CSD_MMMF_1_12
   64    67     0     0     0
SMALL
USER_CHARGES

@<TRIPOS>ATOM
      1 C1          2.0121   -1.2143    1.2319 C.2       1 <0>        -0.1500
      2 C2          0.3162   -0.9298   -0.4630 C.2       1 <0>        -0.1356
      3 C3          2.9245   -1.9459    1.8863 C.2       1 <0>        -0.2882
      4 C4          1.3270   -1.6661    0.0290 C.2       1 <0>        -0.1382
      5 C5         -0.4261   -1.3440   -1.6772 C.2       1 <0>         0.4946
      6 C6          3.0520   -6.2645    1.2605 C.2       1 <0>         0.4480
      7 C7         -0.0521   -2.6371   -2.3563 C.3       1 <0>         0.0610
      8 C8          2.6249   -5.3856    0.0869 C.3       1 <0>         0.0610
      9 C9          0.6099   -3.6118   -1.3906 C.3       1 <0>         0.0000
     10 C10         4.4784   -3.8939    3.7777 C.3       1 <0>         0.0000
     11 C11         4.7891   -5.2227    4.4865 C.3       1 <0>         0.0000
     12 C12         3.3262   -3.3340    1.4645 C.3       1 <0>         0.1382
     13 C13         2.2273   -3.9675    0.5485 C.3       1 <0>         0.0000
     14 C14         3.5426   -4.2948    2.6428 C.3       1 <0>         0.0000
     15 C15         4.2322   -6.3446    3.5783 C.3       1 <0>         0.0000
     16 C16         1.7910   -2.9885   -0.5996 C.3       1 <0>         0.1382
     17 C17         4.0987   -5.6679    2.1953 C.3       1 <0>         0.0610
     18 C18         2.9581   -2.6968   -1.5724 C.3       1 <0>         0.0000
     19 C19         5.4441   -5.6231    1.4437 C.3       1 <0>         0.0000
     20 C20         4.5183   -8.6617    2.6779 C.3       1 <0>         0.0000
     21 C21         5.5328   -9.6867    5.0816 C.3       1 <0>         0.0000
     22 C22         5.1520   -8.2058    5.0632 C.3       1 <0>         0.0000
     23 C23         5.5627  -10.2385    6.5010 C.3       1 <0>         0.2800
     24 C24         5.0782   -7.6104    3.6426 C.3       1 <0>         0.0000
     25 O1          6.7188  -11.3634    8.8658 O.3       1 <0>        -0.8167
     26 O2         -1.3014   -0.6098   -2.1336 O.2       1 <0>        -0.5700
     27 O3          2.6287   -7.4120    1.3872 O.2       1 <0>        -0.5700
     28 O4          5.6784   -9.2395    9.5200 O.2       1 <0>        -0.8167
     29 O5          8.0996   -9.3460    9.1351 O.2       1 <0>        -0.8167
     30 O6          6.5320   -9.5209    7.2525 O.3       1 <0>        -0.4637
     31 S1          6.7829   -9.9032    8.8290 S.o2      1 <0>         1.6337
     32 H1          1.7714   -0.2251    1.6135 H         1 <0>         0.1500
     33 H2          0.0003    0.0002   -0.0001 H         1 <0>         0.1500
     34 H3          3.4155   -1.5047    2.7491 H         1 <0>         0.1500
     35 H4         -0.9660   -3.0949   -2.7512 H         1 <0>         0.0000
     36 H5          0.6022   -2.4064   -3.2029 H         1 <0>         0.0000
     37 H6          3.4445   -5.3628   -0.6369 H         1 <0>         0.0000
     38 H7          1.7735   -5.8804   -0.3920 H         1 <0>         0.0000
     39 H8         -0.1524   -3.9705   -0.6847 H         1 <0>         0.0000
     40 H9          0.9430   -4.4864   -1.9618 H         1 <0>         0.0000
     41 H10         4.0144   -3.1796    4.4653 H         1 <0>         0.0000
     42 H11         5.3994   -3.4390    3.3963 H         1 <0>         0.0000
     43 H12         5.8694   -5.3151    4.6450 H         1 <0>         0.0000
     44 H13         4.3104   -5.2623    5.4714 H         1 <0>         0.0000
     45 H14         4.2678   -3.2271    0.9157 H         1 <0>         0.0000
     46 H15         1.3362   -4.1106    1.1841 H         1 <0>         0.0000
     47 H16         2.5535   -4.4515    3.1073 H         1 <0>         0.0000
     48 H17         3.2283   -6.6104    3.9404 H         1 <0>         0.0000
     49 H18         3.2850   -3.6286   -2.0152 H         1 <0>         0.0000
     50 H19         3.7697   -2.2435   -1.0182 H         1 <0>         0.0000
     51 H20         2.6102   -2.0207   -2.3426 H         1 <0>         0.0000
     52 H21         6.2005   -5.2008    2.0953 H         1 <0>         0.0000
     53 H22         5.3355   -5.0069    0.5586 H         1 <0>         0.0000
     54 H23         5.7248   -6.6306    1.1587 H         1 <0>         0.0000
     55 H24         3.4984   -8.9472    2.9564 H         1 <0>         0.0000
     56 H25         5.1358   -9.5663    2.6762 H         1 <0>         0.0000
     57 H26         4.4862   -8.2713    1.6553 H         1 <0>         0.0000
     58 H27         4.8255  -10.2780    4.4891 H         1 <0>         0.0000
     59 H28         6.5150   -9.8326    4.6154 H         1 <0>         0.0000
     60 H29         5.8943   -7.6456    5.6465 H         1 <0>         0.0000
     61 H30         4.1882   -8.0715    5.5705 H         1 <0>         0.0000
     62 H31         5.8362  -11.2985    6.5019 H         1 <0>         0.0000
     63 H32         4.5890  -10.1209    6.9872 H         1 <0>         0.0000
     64 H33         6.0978   -7.3661    3.3127 H         1 <0>         0.0000
@<TRIPOS>BOND
     1    1    3 2
     2    1    4 1
     3    2    4 2
     4    2    5 1
     5    3   12 1
     6    4   16 1
     7    5    7 1
     8    5   26 2
     9    6    8 1
    10    6   17 1
    11    6   27 2
    12    7    9 1
    13    8   13 1
    14    9   16 1
    15   10   11 1
    16   10   14 1
    17   11   15 1
    18   12   13 1
    19   12   14 1
    20   13   16 1
    21   14   17 1
    22   15   17 1
    23   15   24 1
    24   16   18 1
    25   17   19 1
    26   20   24 1
    27   21   22 1
    28   21   23 1
    29   22   24 1
    30   23   30 1
    31   25   31 1
    32   28   31 2
    33   29   31 2
    34   30   31 1
    35    1   32 1
    36    2   33 1
    37    3   34 1
    38    7   35 1
    39    7   36 1
    40    8   37 1
    41    8   38 1
    42    9   39 1
    43    9   40 1
    44   10   41 1
    45   10   42 1
    46   11   43 1
    47   11   44 1
    48   12   45 1
    49   13   46 1
    50   14   47 1
    51   15   48 1
    52   18   49 1
    53   18   50 1
    54   18   51 1
    55   19   52 1
    56   19   53 1
    57   19   54 1
    58   20   55 1
    59   20   56 1
    60   20   57 1
    61   21   58 1
    62   21   59 1
    63   22   60 1
    64   22   61 1
    65   23   62 1
    66   23   63 1
    67   24   64 1
@<TRIPOS>MOLECULE
DKPES_CSD_MMMF_1_13
   64    67     0     0     0
SMALL
USER_CHARGES

@<TRIPOS>ATOM
      1 C1          2.0121   -1.2143    1.2319 C.2       1 <0>        -0.1500
      2 C2          0.3162   -0.9298   -0.4630 C.2       1 <0>        -0.1356
      3 C3          2.9245   -1.9459    1.8863 C.2       1 <0>        -0.2882
      4 C4          1.3270   -1.6661    0.0290 C.2       1 <0>        -0.1382
      5 C5         -0.4261   -1.3440   -1.6772 C.2       1 <0>         0.4946
      6 C6          3.0520   -6.2645    1.2605 C.2       1 <0>         0.4480
      7 C7         -0.0521   -2.6371   -2.3563 C.3       1 <0>         0.0610
      8 C8          2.6249   -5.3856    0.0869 C.3       1 <0>         0.0610
      9 C9          0.6099   -3.6118   -1.3906 C.3       1 <0>         0.0000
     10 C10         4.4784   -3.8939    3.7777 C.3       1 <0>         0.0000
     11 C11         4.7891   -5.2227    4.4865 C.3       1 <0>         0.0000
     12 C12         3.3262   -3.3340    1.4645 C.3       1 <0>         0.1382
     13 C13         2.2273   -3.9675    0.5485 C.3       1 <0>         0.0000
     14 C14         3.5426   -4.2948    2.6428 C.3       1 <0>         0.0000
     15 C15         4.2322   -6.3446    3.5783 C.3       1 <0>         0.0000
     16 C16         1.7910   -2.9885   -0.5996 C.3       1 <0>         0.1382
     17 C17         4.0987   -5.6679    2.1953 C.3       1 <0>         0.0610
     18 C18         2.9581   -2.6968   -1.5724 C.3       1 <0>         0.0000
     19 C19         5.4441   -5.6231    1.4437 C.3       1 <0>         0.0000
     20 C20         4.5183   -8.6617    2.6779 C.3       1 <0>         0.0000
     21 C21         5.5328   -9.6867    5.0816 C.3       1 <0>         0.0000
     22 C22         5.1520   -8.2058    5.0632 C.3       1 <0>         0.0000
     23 C23         5.5627  -10.2385    6.5010 C.3       1 <0>         0.2800
     24 C24         5.0782   -7.6104    3.6426 C.3       1 <0>         0.0000
     25 O1          5.2281  -10.2145    9.3438 O.3       1 <0>        -0.8167
     26 O2         -1.3014   -0.6098   -2.1336 O.2       1 <0>        -0.5700
     27 O3          2.6287   -7.4120    1.3872 O.2       1 <0>        -0.5700
     28 O4          3.8236  -12.0293    8.4745 O.2       1 <0>        -0.8167
     29 O5          2.8117   -9.8675    9.0437 O.2       1 <0>        -0.8167
     30 O6          4.2767  -10.0775    7.0836 O.3       1 <0>        -0.4637
     31 S1          4.0126  -10.5868    8.6215 S.o2      1 <0>         1.6337
     32 H1          1.7714   -0.2251    1.6135 H         1 <0>         0.1500
     33 H2          0.0003    0.0002   -0.0001 H         1 <0>         0.1500
     34 H3          3.4155   -1.5047    2.7491 H         1 <0>         0.1500
     35 H4         -0.9660   -3.0949   -2.7512 H         1 <0>         0.0000
     36 H5          0.6022   -2.4064   -3.2029 H         1 <0>         0.0000
     37 H6          3.4445   -5.3628   -0.6369 H         1 <0>         0.0000
     38 H7          1.7735   -5.8804   -0.3920 H         1 <0>         0.0000
     39 H8         -0.1524   -3.9705   -0.6847 H         1 <0>         0.0000
     40 H9          0.9430   -4.4864   -1.9618 H         1 <0>         0.0000
     41 H10         4.0144   -3.1796    4.4653 H         1 <0>         0.0000
     42 H11         5.3994   -3.4390    3.3963 H         1 <0>         0.0000
     43 H12         5.8694   -5.3151    4.6450 H         1 <0>         0.0000
     44 H13         4.3104   -5.2623    5.4714 H         1 <0>         0.0000
     45 H14         4.2678   -3.2271    0.9157 H         1 <0>         0.0000
     46 H15         1.3362   -4.1106    1.1841 H         1 <0>         0.0000
     47 H16         2.5535   -4.4515    3.1073 H         1 <0>         0.0000
     48 H17         3.2283   -6.6104    3.9404 H         1 <0>         0.0000
     49 H18         3.2850   -3.6286   -2.0152 H         1 <0>         0.0000
     50 H19         3.7697   -2.2435   -1.0182 H         1 <0>         0.0000
     51 H20         2.6102   -2.0207   -2.3426 H         1 <0>         0.0000
     52 H21         6.2005   -5.2008    2.0953 H         1 <0>         0.0000
     53 H22         5.3355   -5.0069    0.5586 H         1 <0>         0.0000
     54 H23         5.7248   -6.6306    1.1587 H         1 <0>         0.0000
     55 H24         3.4984   -8.9472    2.9564 H         1 <0>         0.0000
     56 H25         5.1358   -9.5663    2.6762 H         1 <0>         0.0000
     57 H26         4.4862   -8.2713    1.6553 H         1 <0>         0.0000
     58 H27         4.8255  -10.2780    4.4891 H         1 <0>         0.0000
     59 H28         6.5150   -9.8326    4.6154 H         1 <0>         0.0000
     60 H29         5.8943   -7.6456    5.6465 H         1 <0>         0.0000
     61 H30         4.1882   -8.0715    5.5705 H         1 <0>         0.0000
     62 H31         6.2925   -9.6998    7.1137 H         1 <0>         0.0000
     63 H32         5.8136  -11.3040    6.5015 H         1 <0>         0.0000
     64 H33         6.0978   -7.3661    3.3127 H         1 <0>         0.0000
@<TRIPOS>BOND
     1    1    3 2
     2    1    4 1
     3    2    4 2
     4    2    5 1
     5    3   12 1
     6    4   16 1
     7    5    7 1
     8    5   26 2
     9    6    8 1
    10    6   17 1
    11    6   27 2
    12    7    9 1
    13    8   13 1
    14    9   16 1
    15   10   11 1
    16   10   14 1
    17   11   15 1
    18   12   13 1
    19   12   14 1
    20   13   16 1
    21   14   17 1
    22   15   17 1
    23   15   24 1
    24   16   18 1
    25   17   19 1
    26   20   24 1
    27   21   22 1
    28   21   23 1
    29   22   24 1
    30   23   30 1
    31   25   31 1
    32   28   31 2
    33   29   31 2
    34   30   31 1
    35    1   32 1
    36    2   33 1
    37    3   34 1
    38    7   35 1
    39    7   36 1
    40    8   37 1
    41    8   38 1
    42    9   39 1
    43    9   40 1
    44   10   41 1
    45   10   42 1
    46   11   43 1
    47   11   44 1
    48   12   45 1
    49   13   46 1
    50   14   47 1
    51   15   48 1
    52   18   49 1
    53   18   50 1
    54   18   51 1
    55   19   52 1
    56   19   53 1
    57   19   54 1
    58   20   55 1
    59   20   56 1
    60   20   57 1
    61   21   58 1
    62   21   59 1
    63   22   60 1
    64   22   61 1
    65   23   62 1
    66   23   63 1
    67   24   64 1
@<TRIPOS>MOLECULE
DKPES_CSD_MMMF_1_14
   64    67     0     0     0
SMALL
USER_CHARGES

@<TRIPOS>ATOM
      1 C1          2.0121   -1.2143    1.2319 C.2       1 <0>        -0.1500
      2 C2          0.3162   -0.9298   -0.4630 C.2       1 <0>        -0.1356
      3 C3          2.9245   -1.9459    1.8863 C.2       1 <0>        -0.2882
      4 C4          1.3270   -1.6661    0.0290 C.2       1 <0>        -0.1382
      5 C5         -0.4261   -1.3440   -1.6772 C.2       1 <0>         0.4946
      6 C6          3.0520   -6.2645    1.2605 C.2       1 <0>         0.4480
      7 C7         -0.0521   -2.6371   -2.3563 C.3       1 <0>         0.0610
      8 C8          2.6249   -5.3856    0.0869 C.3       1 <0>         0.0610
      9 C9          0.6099   -3.6118   -1.3906 C.3       1 <0>         0.0000
     10 C10         4.4784   -3.8939    3.7777 C.3       1 <0>         0.0000
     11 C11         4.7891   -5.2227    4.4865 C.3       1 <0>         0.0000
     12 C12         3.3262   -3.3340    1.4645 C.3       1 <0>         0.1382
     13 C13         2.2273   -3.9675    0.5485 C.3       1 <0>         0.0000
     14 C14         3.5426   -4.2948    2.6428 C.3       1 <0>         0.0000
     15 C15         4.2322   -6.3446    3.5783 C.3       1 <0>         0.0000
     16 C16         1.7910   -2.9885   -0.5996 C.3       1 <0>         0.1382
     17 C17         4.0987   -5.6679    2.1953 C.3       1 <0>         0.0610
     18 C18         2.9581   -2.6968   -1.5724 C.3       1 <0>         0.0000
     19 C19         5.4441   -5.6231    1.4437 C.3       1 <0>         0.0000
     20 C20         4.5183   -8.6617    2.6779 C.3       1 <0>         0.0000
     21 C21         5.9758   -9.4919    5.1403 C.3       1 <0>         0.0000
     22 C22         5.1520   -8.2058    5.0632 C.3       1 <0>         0.0000
     23 C23         7.4225   -9.2547    4.7271 C.3       1 <0>         0.2800
     24 C24         5.0782   -7.6104    3.6426 C.3       1 <0>         0.0000
     25 O1          9.1421   -9.7641    6.9580 O.3       1 <0>        -0.8167
     26 O2         -1.3014   -0.6098   -2.1336 O.2       1 <0>        -0.5700
     27 O3          2.6287   -7.4120    1.3872 O.2       1 <0>        -0.5700
     28 O4          9.7294  -11.9333    5.9726 O.2       1 <0>        -0.8167
     29 O5          7.4950  -11.5904    6.9273 O.2       1 <0>        -0.8167
     30 O6          8.1372  -10.4782    4.8338 O.3       1 <0>        -0.4637
     31 S1          8.6688  -10.9823    6.3026 S.o2      1 <0>         1.6337
     32 H1          1.7714   -0.2251    1.6135 H         1 <0>         0.1500
     33 H2          0.0003    0.0002   -0.0001 H         1 <0>         0.1500
     34 H3          3.4155   -1.5047    2.7491 H         1 <0>         0.1500
     35 H4         -0.9660   -3.0949   -2.7512 H         1 <0>         0.0000
     36 H5          0.6022   -2.4064   -3.2029 H         1 <0>         0.0000
     37 H6          3.4445   -5.3628   -0.6369 H         1 <0>         0.0000
     38 H7          1.7735   -5.8804   -0.3920 H         1 <0>         0.0000
     39 H8         -0.1524   -3.9705   -0.6847 H         1 <0>         0.0000
     40 H9          0.9430   -4.4864   -1.9618 H         1 <0>         0.0000
     41 H10         4.0144   -3.1796    4.4653 H         1 <0>         0.0000
     42 H11         5.3994   -3.4390    3.3963 H         1 <0>         0.0000
     43 H12         5.8694   -5.3151    4.6450 H         1 <0>         0.0000
     44 H13         4.3104   -5.2623    5.4714 H         1 <0>         0.0000
     45 H14         4.2678   -3.2271    0.9157 H         1 <0>         0.0000
     46 H15         1.3362   -4.1106    1.1841 H         1 <0>         0.0000
     47 H16         2.5535   -4.4515    3.1073 H         1 <0>         0.0000
     48 H17         3.2283   -6.6104    3.9404 H         1 <0>         0.0000
     49 H18         3.2850   -3.6286   -2.0152 H         1 <0>         0.0000
     50 H19         3.7697   -2.2435   -1.0182 H         1 <0>         0.0000
     51 H20         2.6102   -2.0207   -2.3426 H         1 <0>         0.0000
     52 H21         6.2005   -5.2008    2.0953 H         1 <0>         0.0000
     53 H22         5.3355   -5.0069    0.5586 H         1 <0>         0.0000
     54 H23         5.7248   -6.6306    1.1587 H         1 <0>         0.0000
     55 H24         3.4984   -8.9472    2.9564 H         1 <0>         0.0000
     56 H25         5.1358   -9.5663    2.6762 H         1 <0>         0.0000
     57 H26         4.4862   -8.2713    1.6553 H         1 <0>         0.0000
     58 H27         5.9628   -9.9021    6.1564 H         1 <0>         0.0000
     59 H28         5.5368  -10.2638    4.4961 H         1 <0>         0.0000
     60 H29         5.5971   -7.4633    5.7383 H         1 <0>         0.0000
     61 H30         4.1381   -8.4002    5.4353 H         1 <0>         0.0000
     62 H31         7.8983   -8.5154    5.3792 H         1 <0>         0.0000
     63 H32         7.4815   -8.9069    3.6908 H         1 <0>         0.0000
     64 H33         6.0978   -7.3661    3.3127 H         1 <0>         0.0000
@<TRIPOS>BOND
     1    1    3 2
     2    1    4 1
     3    2    4 2
     4    2    5 1
     5    3   12 1
     6    4   16 1
     7    5    7 1
     8    5   26 2
     9    6    8 1
    10    6   17 1
    11    6   27 2
    12    7    9 1
    13    8   13 1
    14    9   16 1
    15   10   11 1
    16   10   14 1
    17   11   15 1
    18   12   13 1
    19   12   14 1
    20   13   16 1
    21   14   17 1
    22   15   17 1
    23   15   24 1
    24   16   18 1
    25   17   19 1
    26   20   24 1
    27   21   22 1
    28   21   23 1
    29   22   24 1
    30   23   30 1
    31   25   31 1
    32   28   31 2
    33   29   31 2
    34   30   31 1
    35    1   32 1
    36    2   33 1
    37    3   34 1
    38    7   35 1
    39    7   36 1
    40    8   37 1
    41    8   38 1
    42    9   39 1
    43    9   40 1
    44   10   41 1
    45   10   42 1
    46   11   43 1
    47   11   44 1
    48   12   45 1
    49   13   46 1
    50   14   47 1
    51   15   48 1
    52   18   49 1
    53   18   50 1
    54   18   51 1
    55   19   52 1
    56   19   53 1
    57   19   54 1
    58   20   55 1
    59   20   56 1
    60   20   57 1
    61   21   58 1
    62   21   59 1
    63   22   60 1
    64   22   61 1
    65   23   62 1
    66   23   63 1
    67   24   64 1
@<TRIPOS>MOLECULE
DKPES_CSD_MMMF_1_15
   64    67     0     0     0
SMALL
USER_CHARGES

@<TRIPOS>ATOM
      1 C1          2.0121   -1.2143    1.2319 C.2       1 <0>        -0.1500
      2 C2          0.3162   -0.9298   -0.4630 C.2       1 <0>        -0.1356
      3 C3          2.9245   -1.9459    1.8863 C.2       1 <0>        -0.2882
      4 C4          1.3270   -1.6661    0.0290 C.2       1 <0>        -0.1382
      5 C5         -0.4261   -1.3440   -1.6772 C.2       1 <0>         0.4946
      6 C6          3.0520   -6.2645    1.2605 C.2       1 <0>         0.4480
      7 C7         -0.0521   -2.6371   -2.3563 C.3       1 <0>         0.0610
      8 C8          2.6249   -5.3856    0.0869 C.3       1 <0>         0.0610
      9 C9          0.6099   -3.6118   -1.3906 C.3       1 <0>         0.0000
     10 C10         4.4784   -3.8939    3.7777 C.3       1 <0>         0.0000
     11 C11         4.7891   -5.2227    4.4865 C.3       1 <0>         0.0000
     12 C12         3.3262   -3.3340    1.4645 C.3       1 <0>         0.1382
     13 C13         2.2273   -3.9675    0.5485 C.3       1 <0>         0.0000
     14 C14         3.5426   -4.2948    2.6428 C.3       1 <0>         0.0000
     15 C15         4.2322   -6.3446    3.5783 C.3       1 <0>         0.0000
     16 C16         1.7910   -2.9885   -0.5996 C.3       1 <0>         0.1382
     17 C17         4.0987   -5.6679    2.1953 C.3       1 <0>         0.0610
     18 C18         2.9581   -2.6968   -1.5724 C.3       1 <0>         0.0000
     19 C19         5.4441   -5.6231    1.4437 C.3       1 <0>         0.0000
     20 C20         4.6826   -8.4407    4.8686 C.3       1 <0>         0.0000
     21 C21         7.4569   -8.5116    3.2985 C.3       1 <0>         0.0000
     22 C22         6.5907   -7.3138    3.6905 C.3       1 <0>         0.0000
     23 C23         8.9411   -8.1821    3.3905 C.3       1 <0>         0.2800
     24 C24         5.0782   -7.6104    3.6426 C.3       1 <0>         0.0000
     25 O1         10.7194   -7.0597    6.5444 O.3       1 <0>        -0.8167
     26 O2         -1.3014   -0.6098   -2.1336 O.2       1 <0>        -0.5700
     27 O3          2.6287   -7.4120    1.3872 O.2       1 <0>        -0.5700
     28 O4         11.0607   -6.2402    4.2568 O.2       1 <0>        -0.8167
     29 O5         11.5738   -8.5760    4.8066 O.2       1 <0>        -0.8167
     30 O6          9.2450   -7.8001    4.7250 O.3       1 <0>        -0.4637
     31 S1         10.7834   -7.3867    5.1208 S.o2      1 <0>         1.6337
     32 H1          1.7714   -0.2251    1.6135 H         1 <0>         0.1500
     33 H2          0.0003    0.0002   -0.0001 H         1 <0>         0.1500
     34 H3          3.4155   -1.5047    2.7491 H         1 <0>         0.1500
     35 H4         -0.9660   -3.0949   -2.7512 H         1 <0>         0.0000
     36 H5          0.6022   -2.4064   -3.2029 H         1 <0>         0.0000
     37 H6          3.4445   -5.3628   -0.6369 H         1 <0>         0.0000
     38 H7          1.7735   -5.8804   -0.3920 H         1 <0>         0.0000
     39 H8         -0.1524   -3.9705   -0.6847 H         1 <0>         0.0000
     40 H9          0.9430   -4.4864   -1.9618 H         1 <0>         0.0000
     41 H10         4.0144   -3.1796    4.4653 H         1 <0>         0.0000
     42 H11         5.3994   -3.4390    3.3963 H         1 <0>         0.0000
     43 H12         5.8694   -5.3151    4.6450 H         1 <0>         0.0000
     44 H13         4.3104   -5.2623    5.4714 H         1 <0>         0.0000
     45 H14         4.2678   -3.2271    0.9157 H         1 <0>         0.0000
     46 H15         1.3362   -4.1106    1.1841 H         1 <0>         0.0000
     47 H16         2.5535   -4.4515    3.1073 H         1 <0>         0.0000
     48 H17         3.2283   -6.6104    3.9404 H         1 <0>         0.0000
     49 H18         3.2850   -3.6286   -2.0152 H         1 <0>         0.0000
     50 H19         3.7697   -2.2435   -1.0182 H         1 <0>         0.0000
     51 H20         2.6102   -2.0207   -2.3426 H         1 <0>         0.0000
     52 H21         6.2005   -5.2008    2.0953 H         1 <0>         0.0000
     53 H22         5.3355   -5.0069    0.5586 H         1 <0>         0.0000
     54 H23         5.7248   -6.6306    1.1587 H         1 <0>         0.0000
     55 H24         4.8689   -7.8872    5.7950 H         1 <0>         0.0000
     56 H25         5.2494   -9.3769    4.9126 H         1 <0>         0.0000
     57 H26         3.6169   -8.6907    4.8400 H         1 <0>         0.0000
     58 H27         7.2468   -9.3719    3.9440 H         1 <0>         0.0000
     59 H28         7.2199   -8.8342    2.2771 H         1 <0>         0.0000
     60 H29         6.8129   -6.4825    3.0088 H         1 <0>         0.0000
     61 H30         6.8694   -6.9772    4.6971 H         1 <0>         0.0000
     62 H31         9.1987   -7.3530    2.7237 H         1 <0>         0.0000
     63 H32         9.5521   -9.0523    3.1303 H         1 <0>         0.0000
     64 H33         4.8690   -8.2160    2.7494 H         1 <0>         0.0000
@<TRIPOS>BOND
     1    1    3 2
     2    1    4 1
     3    2    4 2
     4    2    5 1
     5    3   12 1
     6    4   16 1
     7    5    7 1
     8    5   26 2
     9    6    8 1
    10    6   17 1
    11    6   27 2
    12    7    9 1
    13    8   13 1
    14    9   16 1
    15   10   11 1
    16   10   14 1
    17   11   15 1
    18   12   13 1
    19   12   14 1
    20   13   16 1
    21   14   17 1
    22   15   17 1
    23   15   24 1
    24   16   18 1
    25   17   19 1
    26   20   24 1
    27   21   22 1
    28   21   23 1
    29   22   24 1
    30   23   30 1
    31   25   31 1
    32   28   31 2
    33   29   31 2
    34   30   31 1
    35    1   32 1
    36    2   33 1
    37    3   34 1
    38    7   35 1
    39    7   36 1
    40    8   37 1
    41    8   38 1
    42    9   39 1
    43    9   40 1
    44   10   41 1
    45   10   42 1
    46   11   43 1
    47   11   44 1
    48   12   45 1
    49   13   46 1
    50   14   47 1
    51   15   48 1
    52   18   49 1
    53   18   50 1
    54   18   51 1
    55   19   52 1
    56   19   53 1
    57   19   54 1
    58   20   55 1
    59   20   56 1
    60   20   57 1
    61   21   58 1
    62   21   59 1
    63   22   60 1
    64   22   61 1
    65   23   62 1
    66   23   63 1
    67   24   64 1
@<TRIPOS>MOLECULE
DKPES_CSD_MMMF_1_16
   64    67     0     0     0
SMALL
USER_CHARGES

@<TRIPOS>ATOM
      1 C1          2.0121   -1.2143    1.2319 C.2       1 <0>        -0.1500
      2 C2          0.3162   -0.9298   -0.4630 C.2       1 <0>        -0.1356
      3 C3          2.9245   -1.9459    1.8863 C.2       1 <0>        -0.2882
      4 C4          1.3270   -1.6661    0.0290 C.2       1 <0>        -0.1382
      5 C5         -0.4261   -1.3440   -1.6772 C.2       1 <0>         0.4946
      6 C6          3.0520   -6.2645    1.2605 C.2       1 <0>         0.4480
      7 C7         -0.0521   -2.6371   -2.3563 C.3       1 <0>         0.0610
      8 C8          2.6249   -5.3856    0.0869 C.3       1 <0>         0.0610
      9 C9          0.6099   -3.6118   -1.3906 C.3       1 <0>         0.0000
     10 C10         4.4784   -3.8939    3.7777 C.3       1 <0>         0.0000
     11 C11         4.7891   -5.2227    4.4865 C.3       1 <0>         0.0000
     12 C12         3.3262   -3.3340    1.4645 C.3       1 <0>         0.1382
     13 C13         2.2273   -3.9675    0.5485 C.3       1 <0>         0.0000
     14 C14         3.5426   -4.2948    2.6428 C.3       1 <0>         0.0000
     15 C15         4.2322   -6.3446    3.5783 C.3       1 <0>         0.0000
     16 C16         1.7910   -2.9885   -0.5996 C.3       1 <0>         0.1382
     17 C17         4.0987   -5.6679    2.1953 C.3       1 <0>         0.0610
     18 C18         2.9581   -2.6968   -1.5724 C.3       1 <0>         0.0000
     19 C19         5.4441   -5.6231    1.4437 C.3       1 <0>         0.0000
     20 C20         4.2804   -8.7995    3.0961 C.3       1 <0>         0.0000
     21 C21         6.3911   -9.2134    5.1576 C.3       1 <0>         0.0000
     22 C22         5.5625   -7.9310    5.0711 C.3       1 <0>         0.0000
     23 C23         6.8204   -9.5060    6.5895 C.3       1 <0>         0.2800
     24 C24         5.0782   -7.6104    3.6426 C.3       1 <0>         0.0000
     25 O1          7.8222  -10.5805    9.0462 O.3       1 <0>        -0.8167
     26 O2         -1.3014   -0.6098   -2.1336 O.2       1 <0>        -0.5700
     27 O3          2.6287   -7.4120    1.3872 O.2       1 <0>        -0.5700
     28 O4          9.7567  -10.2332    7.5769 O.2       1 <0>        -0.8167
     29 O5          8.7867  -12.4752    7.8095 O.2       1 <0>        -0.8167
     30 O6          7.5708  -10.7125    6.6066 O.3       1 <0>        -0.4637
     31 S1          8.5672  -11.0309    7.8715 S.o2      1 <0>         1.6337
     32 H1          1.7714   -0.2251    1.6135 H         1 <0>         0.1500
     33 H2          0.0003    0.0002   -0.0001 H         1 <0>         0.1500
     34 H3          3.4155   -1.5047    2.7491 H         1 <0>         0.1500
     35 H4         -0.9660   -3.0949   -2.7512 H         1 <0>         0.0000
     36 H5          0.6022   -2.4064   -3.2029 H         1 <0>         0.0000
     37 H6          3.4445   -5.3628   -0.6369 H         1 <0>         0.0000
     38 H7          1.7735   -5.8804   -0.3920 H         1 <0>         0.0000
     39 H8         -0.1524   -3.9705   -0.6847 H         1 <0>         0.0000
     40 H9          0.9430   -4.4864   -1.9618 H         1 <0>         0.0000
     41 H10         4.0144   -3.1796    4.4653 H         1 <0>         0.0000
     42 H11         5.3994   -3.4390    3.3963 H         1 <0>         0.0000
     43 H12         5.8694   -5.3151    4.6450 H         1 <0>         0.0000
     44 H13         4.3104   -5.2623    5.4714 H         1 <0>         0.0000
     45 H14         4.2678   -3.2271    0.9157 H         1 <0>         0.0000
     46 H15         1.3362   -4.1106    1.1841 H         1 <0>         0.0000
     47 H16         2.5535   -4.4515    3.1073 H         1 <0>         0.0000
     48 H17         3.2283   -6.6104    3.9404 H         1 <0>         0.0000
     49 H18         3.2850   -3.6286   -2.0152 H         1 <0>         0.0000
     50 H19         3.7697   -2.2435   -1.0182 H         1 <0>         0.0000
     51 H20         2.6102   -2.0207   -2.3426 H         1 <0>         0.0000
     52 H21         6.2005   -5.2008    2.0953 H         1 <0>         0.0000
     53 H22         5.3355   -5.0069    0.5586 H         1 <0>         0.0000
     54 H23         5.7248   -6.6306    1.1587 H         1 <0>         0.0000
     55 H24         3.3864   -8.9844    3.7009 H         1 <0>         0.0000
     56 H25         4.8837   -9.7137    3.0936 H         1 <0>         0.0000
     57 H26         3.9524   -8.6071    2.0692 H         1 <0>         0.0000
     58 H27         5.8230  -10.0703    4.7785 H         1 <0>         0.0000
     59 H28         7.2813   -9.1345    4.5214 H         1 <0>         0.0000
     60 H29         6.1718   -7.0944    5.4372 H         1 <0>         0.0000
     61 H30         4.6997   -8.0091    5.7448 H         1 <0>         0.0000
     62 H31         5.9490   -9.6285    7.2406 H         1 <0>         0.0000
     63 H32         7.4487   -8.7002    6.9821 H         1 <0>         0.0000
     64 H33         5.9579   -7.4756    2.9974 H         1 <0>         0.0000
@<TRIPOS>BOND
     1    1    3 2
     2    1    4 1
     3    2    4 2
     4    2    5 1
     5    3   12 1
     6    4   16 1
     7    5    7 1
     8    5   26 2
     9    6    8 1
    10    6   17 1
    11    6   27 2
    12    7    9 1
    13    8   13 1
    14    9   16 1
    15   10   11 1
    16   10   14 1
    17   11   15 1
    18   12   13 1
    19   12   14 1
    20   13   16 1
    21   14   17 1
    22   15   17 1
    23   15   24 1
    24   16   18 1
    25   17   19 1
    26   20   24 1
    27   21   22 1
    28   21   23 1
    29   22   24 1
    30   23   30 1
    31   25   31 1
    32   28   31 2
    33   29   31 2
    34   30   31 1
    35    1   32 1
    36    2   33 1
    37    3   34 1
    38    7   35 1
    39    7   36 1
    40    8   37 1
    41    8   38 1
    42    9   39 1
    43    9   40 1
    44   10   41 1
    45   10   42 1
    46   11   43 1
    47   11   44 1
    48   12   45 1
    49   13   46 1
    50   14   47 1
    51   15   48 1
    52   18   49 1
    53   18   50 1
    54   18   51 1
    55   19   52 1
    56   19   53 1
    57   19   54 1
    58   20   55 1
    59   20   56 1
    60   20   57 1
    61   21   58 1
    62   21   59 1
    63   22   60 1
    64   22   61 1
    65   23   62 1
    66   23   63 1
    67   24   64 1
@<TRIPOS>MOLECULE
DKPES_CSD_MMMF_1_17
   64    67     0     0     0
SMALL
USER_CHARGES

@<TRIPOS>ATOM
      1 C1          2.0121   -1.2143    1.2319 C.2       1 <0>        -0.1500
      2 C2          0.3162   -0.9298   -0.4630 C.2       1 <0>        -0.1356
      3 C3          2.9245   -1.9459    1.8863 C.2       1 <0>        -0.2882
      4 C4          1.3270   -1.6661    0.0290 C.2       1 <0>        -0.1382
      5 C5         -0.4261   -1.3440   -1.6772 C.2       1 <0>         0.4946
      6 C6          3.0520   -6.2645    1.2605 C.2       1 <0>         0.4480
      7 C7         -0.0521   -2.6371   -2.3563 C.3       1 <0>         0.0610
      8 C8          2.6249   -5.3856    0.0869 C.3       1 <0>         0.0610
      9 C9          0.6099   -3.6118   -1.3906 C.3       1 <0>         0.0000
     10 C10         4.4784   -3.8939    3.7777 C.3       1 <0>         0.0000
     11 C11         4.7891   -5.2227    4.4865 C.3       1 <0>         0.0000
     12 C12         3.3262   -3.3340    1.4645 C.3       1 <0>         0.1382
     13 C13         2.2273   -3.9675    0.5485 C.3       1 <0>         0.0000
     14 C14         3.5426   -4.2948    2.6428 C.3       1 <0>         0.0000
     15 C15         4.2322   -6.3446    3.5783 C.3       1 <0>         0.0000
     16 C16         1.7910   -2.9885   -0.5996 C.3       1 <0>         0.1382
     17 C17         4.0987   -5.6679    2.1953 C.3       1 <0>         0.0610
     18 C18         2.9581   -2.6968   -1.5724 C.3       1 <0>         0.0000
     19 C19         5.4441   -5.6231    1.4437 C.3       1 <0>         0.0000
     20 C20         4.2804   -8.7995    3.0961 C.3       1 <0>         0.0000
     21 C21         4.4210   -8.1204    6.0709 C.3       1 <0>         0.0000
     22 C22         5.5625   -7.9310    5.0711 C.3       1 <0>         0.0000
     23 C23         4.9465   -8.4036    7.4722 C.3       1 <0>         0.2800
     24 C24         5.0782   -7.6104    3.6426 C.3       1 <0>         0.0000
     25 O1          6.1423   -8.3670   10.0727 O.3       1 <0>        -0.8167
     26 O2         -1.3014   -0.6098   -2.1336 O.2       1 <0>        -0.5700
     27 O3          2.6287   -7.4120    1.3872 O.2       1 <0>        -0.5700
     28 O4          7.0970   -6.1629    9.5705 O.2       1 <0>        -0.8167
     29 O5          7.9900   -8.1619    8.4623 O.2       1 <0>        -0.8167
     30 O6          5.7579   -7.3136    7.8875 O.3       1 <0>        -0.4637
     31 S1          6.8407   -7.5245    9.1030 S.o2      1 <0>         1.6337
     32 H1          1.7714   -0.2251    1.6135 H         1 <0>         0.1500
     33 H2          0.0003    0.0002   -0.0001 H         1 <0>         0.1500
     34 H3          3.4155   -1.5047    2.7491 H         1 <0>         0.1500
     35 H4         -0.9660   -3.0949   -2.7512 H         1 <0>         0.0000
     36 H5          0.6022   -2.4064   -3.2029 H         1 <0>         0.0000
     37 H6          3.4445   -5.3628   -0.6369 H         1 <0>         0.0000
     38 H7          1.7735   -5.8804   -0.3920 H         1 <0>         0.0000
     39 H8         -0.1524   -3.9705   -0.6847 H         1 <0>         0.0000
     40 H9          0.9430   -4.4864   -1.9618 H         1 <0>         0.0000
     41 H10         4.0144   -3.1796    4.4653 H         1 <0>         0.0000
     42 H11         5.3994   -3.4390    3.3963 H         1 <0>         0.0000
     43 H12         5.8694   -5.3151    4.6450 H         1 <0>         0.0000
     44 H13         4.3104   -5.2623    5.4714 H         1 <0>         0.0000
     45 H14         4.2678   -3.2271    0.9157 H         1 <0>         0.0000
     46 H15         1.3362   -4.1106    1.1841 H         1 <0>         0.0000
     47 H16         2.5535   -4.4515    3.1073 H         1 <0>         0.0000
     48 H17         3.2283   -6.6104    3.9404 H         1 <0>         0.0000
     49 H18         3.2850   -3.6286   -2.0152 H         1 <0>         0.0000
     50 H19         3.7697   -2.2435   -1.0182 H         1 <0>         0.0000
     51 H20         2.6102   -2.0207   -2.3426 H         1 <0>         0.0000
     52 H21         6.2005   -5.2008    2.0953 H         1 <0>         0.0000
     53 H22         5.3355   -5.0069    0.5586 H         1 <0>         0.0000
     54 H23         5.7248   -6.6306    1.1587 H         1 <0>         0.0000
     55 H24         3.3864   -8.9844    3.7009 H         1 <0>         0.0000
     56 H25         4.8837   -9.7137    3.0936 H         1 <0>         0.0000
     57 H26         3.9524   -8.6071    2.0692 H         1 <0>         0.0000
     58 H27         3.7837   -7.2296    6.1075 H         1 <0>         0.0000
     59 H28         3.7709   -8.9453    5.7540 H         1 <0>         0.0000
     60 H29         6.1629   -8.8497    5.0463 H         1 <0>         0.0000
     61 H30         6.2265   -7.1317    5.4240 H         1 <0>         0.0000
     62 H31         5.5538   -9.3144    7.4844 H         1 <0>         0.0000
     63 H32         4.1224   -8.5147    8.1841 H         1 <0>         0.0000
     64 H33         5.9579   -7.4756    2.9974 H         1 <0>         0.0000
@<TRIPOS>BOND
     1    1    3 2
     2    1    4 1
     3    2    4 2
     4    2    5 1
     5    3   12 1
     6    4   16 1
     7    5    7 1
     8    5   26 2
     9    6    8 1
    10    6   17 1
    11    6   27 2
    12    7    9 1
    13    8   13 1
    14    9   16 1
    15   10   11 1
    16   10   14 1
    17   11   15 1
    18   12   13 1
    19   12   14 1
    20   13   16 1
    21   14   17 1
    22   15   17 1
    23   15   24 1
    24   16   18 1
    25   17   19 1
    26   20   24 1
    27   21   22 1
    28   21   23 1
    29   22   24 1
    30   23   30 1
    31   25   31 1
    32   28   31 2
    33   29   31 2
    34   30   31 1
    35    1   32 1
    36    2   33 1
    37    3   34 1
    38    7   35 1
    39    7   36 1
    40    8   37 1
    41    8   38 1
    42    9   39 1
    43    9   40 1
    44   10   41 1
    45   10   42 1
    46   11   43 1
    47   11   44 1
    48   12   45 1
    49   13   46 1
    50   14   47 1
    51   15   48 1
    52   18   49 1
    53   18   50 1
    54   18   51 1
    55   19   52 1
    56   19   53 1
    57   19   54 1
    58   20   55 1
    59   20   56 1
    60   20   57 1
    61   21   58 1
    62   21   59 1
    63   22   60 1
    64   22   61 1
    65   23   62 1
    66   23   63 1
    67   24   64 1
@<TRIPOS>MOLECULE
DKPES_CSD_MMMF_1_18
   64    67     0     0     0
SMALL
USER_CHARGES

@<TRIPOS>ATOM
      1 C1          2.0121   -1.2143    1.2319 C.2       1 <0>        -0.1500
      2 C2          0.3162   -0.9298   -0.4630 C.2       1 <0>        -0.1356
      3 C3          2.9245   -1.9459    1.8863 C.2       1 <0>        -0.2882
      4 C4          1.3270   -1.6661    0.0290 C.2       1 <0>        -0.1382
      5 C5         -0.4261   -1.3440   -1.6772 C.2       1 <0>         0.4946
      6 C6          3.0520   -6.2645    1.2605 C.2       1 <0>         0.4480
      7 C7         -0.0521   -2.6371   -2.3563 C.3       1 <0>         0.0610
      8 C8          2.6249   -5.3856    0.0869 C.3       1 <0>         0.0610
      9 C9          0.6099   -3.6118   -1.3906 C.3       1 <0>         0.0000
     10 C10         4.4784   -3.8939    3.7777 C.3       1 <0>         0.0000
     11 C11         4.7891   -5.2227    4.4865 C.3       1 <0>         0.0000
     12 C12         3.3262   -3.3340    1.4645 C.3       1 <0>         0.1382
     13 C13         2.2273   -3.9675    0.5485 C.3       1 <0>         0.0000
     14 C14         3.5426   -4.2948    2.6428 C.3       1 <0>         0.0000
     15 C15         4.2322   -6.3446    3.5783 C.3       1 <0>         0.0000
     16 C16         1.7910   -2.9885   -0.5996 C.3       1 <0>         0.1382
     17 C17         4.0987   -5.6679    2.1953 C.3       1 <0>         0.0610
     18 C18         2.9581   -2.6968   -1.5724 C.3       1 <0>         0.0000
     19 C19         5.4441   -5.6231    1.4437 C.3       1 <0>         0.0000
     20 C20         4.5183   -8.6617    2.6779 C.3       1 <0>         0.0000
     21 C21         5.9758   -9.4919    5.1403 C.3       1 <0>         0.0000
     22 C22         5.1520   -8.2058    5.0632 C.3       1 <0>         0.0000
     23 C23         7.4225   -9.2547    4.7271 C.3       1 <0>         0.2800
     24 C24         5.0782   -7.6104    3.6426 C.3       1 <0>         0.0000
     25 O1          9.1591  -10.0217    6.8694 O.3       1 <0>        -0.8167
     26 O2         -1.3014   -0.6098   -2.1336 O.2       1 <0>        -0.5700
     27 O3          2.6287   -7.4120    1.3872 O.2       1 <0>        -0.5700
     28 O4          7.2927   -8.7830    7.8713 O.2       1 <0>        -0.8167
     29 O5          9.4353   -7.6542    7.4762 O.2       1 <0>        -0.8167
     30 O6          7.9926   -8.2799    5.5896 O.3       1 <0>        -0.4637
     31 S1          8.5203   -8.7233    7.0793 S.o2      1 <0>         1.6337
     32 H1          1.7714   -0.2251    1.6135 H         1 <0>         0.1500
     33 H2          0.0003    0.0002   -0.0001 H         1 <0>         0.1500
     34 H3          3.4155   -1.5047    2.7491 H         1 <0>         0.1500
     35 H4         -0.9660   -3.0949   -2.7512 H         1 <0>         0.0000
     36 H5          0.6022   -2.4064   -3.2029 H         1 <0>         0.0000
     37 H6          3.4445   -5.3628   -0.6369 H         1 <0>         0.0000
     38 H7          1.7735   -5.8804   -0.3920 H         1 <0>         0.0000
     39 H8         -0.1524   -3.9705   -0.6847 H         1 <0>         0.0000
     40 H9          0.9430   -4.4864   -1.9618 H         1 <0>         0.0000
     41 H10         4.0144   -3.1796    4.4653 H         1 <0>         0.0000
     42 H11         5.3994   -3.4390    3.3963 H         1 <0>         0.0000
     43 H12         5.8694   -5.3151    4.6450 H         1 <0>         0.0000
     44 H13         4.3104   -5.2623    5.4714 H         1 <0>         0.0000
     45 H14         4.2678   -3.2271    0.9157 H         1 <0>         0.0000
     46 H15         1.3362   -4.1106    1.1841 H         1 <0>         0.0000
     47 H16         2.5535   -4.4515    3.1073 H         1 <0>         0.0000
     48 H17         3.2283   -6.6104    3.9404 H         1 <0>         0.0000
     49 H18         3.2850   -3.6286   -2.0152 H         1 <0>         0.0000
     50 H19         3.7697   -2.2435   -1.0182 H         1 <0>         0.0000
     51 H20         2.6102   -2.0207   -2.3426 H         1 <0>         0.0000
     52 H21         6.2005   -5.2008    2.0953 H         1 <0>         0.0000
     53 H22         5.3355   -5.0069    0.5586 H         1 <0>         0.0000
     54 H23         5.7248   -6.6306    1.1587 H         1 <0>         0.0000
     55 H24         3.4984   -8.9472    2.9564 H         1 <0>         0.0000
     56 H25         5.1358   -9.5663    2.6762 H         1 <0>         0.0000
     57 H26         4.4862   -8.2713    1.6553 H         1 <0>         0.0000
     58 H27         5.9628   -9.9021    6.1564 H         1 <0>         0.0000
     59 H28         5.5368  -10.2638    4.4961 H         1 <0>         0.0000
     60 H29         5.5971   -7.4633    5.7383 H         1 <0>         0.0000
     61 H30         4.1381   -8.4002    5.4353 H         1 <0>         0.0000
     62 H31         7.4787   -8.8849    3.6983 H         1 <0>         0.0000
     63 H32         8.0085  -10.1757    4.8078 H         1 <0>         0.0000
     64 H33         6.0978   -7.3661    3.3127 H         1 <0>         0.0000
@<TRIPOS>BOND
     1    1    3 2
     2    1    4 1
     3    2    4 2
     4    2    5 1
     5    3   12 1
     6    4   16 1
     7    5    7 1
     8    5   26 2
     9    6    8 1
    10    6   17 1
    11    6   27 2
    12    7    9 1
    13    8   13 1
    14    9   16 1
    15   10   11 1
    16   10   14 1
    17   11   15 1
    18   12   13 1
    19   12   14 1
    20   13   16 1
    21   14   17 1
    22   15   17 1
    23   15   24 1
    24   16   18 1
    25   17   19 1
    26   20   24 1
    27   21   22 1
    28   21   23 1
    29   22   24 1
    30   23   30 1
    31   25   31 1
    32   28   31 2
    33   29   31 2
    34   30   31 1
    35    1   32 1
    36    2   33 1
    37    3   34 1
    38    7   35 1
    39    7   36 1
    40    8   37 1
    41    8   38 1
    42    9   39 1
    43    9   40 1
    44   10   41 1
    45   10   42 1
    46   11   43 1
    47   11   44 1
    48   12   45 1
    49   13   46 1
    50   14   47 1
    51   15   48 1
    52   18   49 1
    53   18   50 1
    54   18   51 1
    55   19   52 1
    56   19   53 1
    57   19   54 1
    58   20   55 1
    59   20   56 1
    60   20   57 1
    61   21   58 1
    62   21   59 1
    63   22   60 1
    64   22   61 1
    65   23   62 1
    66   23   63 1
    67   24   64 1
@<TRIPOS>MOLECULE
DKPES_CSD_MMMF_1_19
   64    67     0     0     0
SMALL
USER_CHARGES

@<TRIPOS>ATOM
      1 C1          2.0121   -1.2143    1.2319 C.2       1 <0>        -0.1500
      2 C2          0.3162   -0.9298   -0.4630 C.2       1 <0>        -0.1356
      3 C3          2.9245   -1.9459    1.8863 C.2       1 <0>        -0.2882
      4 C4          1.3270   -1.6661    0.0290 C.2       1 <0>        -0.1382
      5 C5         -0.4261   -1.3440   -1.6772 C.2       1 <0>         0.4946
      6 C6          3.0520   -6.2645    1.2605 C.2       1 <0>         0.4480
      7 C7         -0.0521   -2.6371   -2.3563 C.3       1 <0>         0.0610
      8 C8          2.6249   -5.3856    0.0869 C.3       1 <0>         0.0610
      9 C9          0.6099   -3.6118   -1.3906 C.3       1 <0>         0.0000
     10 C10         4.4784   -3.8939    3.7777 C.3       1 <0>         0.0000
     11 C11         4.7891   -5.2227    4.4865 C.3       1 <0>         0.0000
     12 C12         3.3262   -3.3340    1.4645 C.3       1 <0>         0.1382
     13 C13         2.2273   -3.9675    0.5485 C.3       1 <0>         0.0000
     14 C14         3.5426   -4.2948    2.6428 C.3       1 <0>         0.0000
     15 C15         4.2322   -6.3446    3.5783 C.3       1 <0>         0.0000
     16 C16         1.7910   -2.9885   -0.5996 C.3       1 <0>         0.1382
     17 C17         4.0987   -5.6679    2.1953 C.3       1 <0>         0.0610
     18 C18         2.9581   -2.6968   -1.5724 C.3       1 <0>         0.0000
     19 C19         5.4441   -5.6231    1.4437 C.3       1 <0>         0.0000
     20 C20         4.2804   -8.7995    3.0961 C.3       1 <0>         0.0000
     21 C21         4.4210   -8.1204    6.0709 C.3       1 <0>         0.0000
     22 C22         5.5625   -7.9310    5.0711 C.3       1 <0>         0.0000
     23 C23         4.9465   -8.4036    7.4722 C.3       1 <0>         0.2800
     24 C24         5.0782   -7.6104    3.6426 C.3       1 <0>         0.0000
     25 O1          7.3848  -11.1902    8.2842 O.3       1 <0>        -0.8167
     26 O2         -1.3014   -0.6098   -2.1336 O.2       1 <0>        -0.5700
     27 O3          2.6287   -7.4120    1.3872 O.2       1 <0>        -0.5700
     28 O4          5.9671   -9.9346    9.8447 O.2       1 <0>        -0.8167
     29 O5          7.7241   -8.7729    8.5858 O.2       1 <0>        -0.8167
     30 O6          5.7139   -9.5992    7.4420 O.3       1 <0>        -0.4637
     31 S1          6.7949   -9.9005    8.6399 S.o2      1 <0>         1.6337
     32 H1          1.7714   -0.2251    1.6135 H         1 <0>         0.1500
     33 H2          0.0003    0.0002   -0.0001 H         1 <0>         0.1500
     34 H3          3.4155   -1.5047    2.7491 H         1 <0>         0.1500
     35 H4         -0.9660   -3.0949   -2.7512 H         1 <0>         0.0000
     36 H5          0.6022   -2.4064   -3.2029 H         1 <0>         0.0000
     37 H6          3.4445   -5.3628   -0.6369 H         1 <0>         0.0000
     38 H7          1.7735   -5.8804   -0.3920 H         1 <0>         0.0000
     39 H8         -0.1524   -3.9705   -0.6847 H         1 <0>         0.0000
     40 H9          0.9430   -4.4864   -1.9618 H         1 <0>         0.0000
     41 H10         4.0144   -3.1796    4.4653 H         1 <0>         0.0000
     42 H11         5.3994   -3.4390    3.3963 H         1 <0>         0.0000
     43 H12         5.8694   -5.3151    4.6450 H         1 <0>         0.0000
     44 H13         4.3104   -5.2623    5.4714 H         1 <0>         0.0000
     45 H14         4.2678   -3.2271    0.9157 H         1 <0>         0.0000
     46 H15         1.3362   -4.1106    1.1841 H         1 <0>         0.0000
     47 H16         2.5535   -4.4515    3.1073 H         1 <0>         0.0000
     48 H17         3.2283   -6.6104    3.9404 H         1 <0>         0.0000
     49 H18         3.2850   -3.6286   -2.0152 H         1 <0>         0.0000
     50 H19         3.7697   -2.2435   -1.0182 H         1 <0>         0.0000
     51 H20         2.6102   -2.0207   -2.3426 H         1 <0>         0.0000
     52 H21         6.2005   -5.2008    2.0953 H         1 <0>         0.0000
     53 H22         5.3355   -5.0069    0.5586 H         1 <0>         0.0000
     54 H23         5.7248   -6.6306    1.1587 H         1 <0>         0.0000
     55 H24         3.3864   -8.9844    3.7009 H         1 <0>         0.0000
     56 H25         4.8837   -9.7137    3.0936 H         1 <0>         0.0000
     57 H26         3.9524   -8.6071    2.0692 H         1 <0>         0.0000
     58 H27         3.7837   -7.2296    6.1075 H         1 <0>         0.0000
     59 H28         3.7709   -8.9453    5.7540 H         1 <0>         0.0000
     60 H29         6.1629   -8.8497    5.0463 H         1 <0>         0.0000
     61 H30         6.2265   -7.1317    5.4240 H         1 <0>         0.0000
     62 H31         4.1211   -8.5373    8.1788 H         1 <0>         0.0000
     63 H32         5.5872   -7.5880    7.8221 H         1 <0>         0.0000
     64 H33         5.9579   -7.4756    2.9974 H         1 <0>         0.0000
@<TRIPOS>BOND
     1    1    3 2
     2    1    4 1
     3    2    4 2
     4    2    5 1
     5    3   12 1
     6    4   16 1
     7    5    7 1
     8    5   26 2
     9    6    8 1
    10    6   17 1
    11    6   27 2
    12    7    9 1
    13    8   13 1
    14    9   16 1
    15   10   11 1
    16   10   14 1
    17   11   15 1
    18   12   13 1
    19   12   14 1
    20   13   16 1
    21   14   17 1
    22   15   17 1
    23   15   24 1
    24   16   18 1
    25   17   19 1
    26   20   24 1
    27   21   22 1
    28   21   23 1
    29   22   24 1
    30   23   30 1
    31   25   31 1
    32   28   31 2
    33   29   31 2
    34   30   31 1
    35    1   32 1
    36    2   33 1
    37    3   34 1
    38    7   35 1
    39    7   36 1
    40    8   37 1
    41    8   38 1
    42    9   39 1
    43    9   40 1
    44   10   41 1
    45   10   42 1
    46   11   43 1
    47   11   44 1
    48   12   45 1
    49   13   46 1
    50   14   47 1
    51   15   48 1
    52   18   49 1
    53   18   50 1
    54   18   51 1
    55   19   52 1
    56   19   53 1
    57   19   54 1
    58   20   55 1
    59   20   56 1
    60   20   57 1
    61   21   58 1
    62   21   59 1
    63   22   60 1
    64   22   61 1
    65   23   62 1
    66   23   63 1
    67   24   64 1
@<TRIPOS>MOLECULE
DKPES_CSD_MMMF_1_20
   64    67     0     0     0
SMALL
USER_CHARGES

@<TRIPOS>ATOM
      1 C1          2.0121   -1.2143    1.2319 C.2       1 <0>        -0.1500
      2 C2          0.3162   -0.9298   -0.4630 C.2       1 <0>        -0.1356
      3 C3          2.9245   -1.9459    1.8863 C.2       1 <0>        -0.2882
      4 C4          1.3270   -1.6661    0.0290 C.2       1 <0>        -0.1382
      5 C5         -0.4261   -1.3440   -1.6772 C.2       1 <0>         0.4946
      6 C6          3.0520   -6.2645    1.2605 C.2       1 <0>         0.4480
      7 C7         -0.0521   -2.6371   -2.3563 C.3       1 <0>         0.0610
      8 C8          2.6249   -5.3856    0.0869 C.3       1 <0>         0.0610
      9 C9          0.6099   -3.6118   -1.3906 C.3       1 <0>         0.0000
     10 C10         4.4784   -3.8939    3.7777 C.3       1 <0>         0.0000
     11 C11         4.7891   -5.2227    4.4865 C.3       1 <0>         0.0000
     12 C12         3.3262   -3.3340    1.4645 C.3       1 <0>         0.1382
     13 C13         2.2273   -3.9675    0.5485 C.3       1 <0>         0.0000
     14 C14         3.5426   -4.2948    2.6428 C.3       1 <0>         0.0000
     15 C15         4.2322   -6.3446    3.5783 C.3       1 <0>         0.0000
     16 C16         1.7910   -2.9885   -0.5996 C.3       1 <0>         0.1382
     17 C17         4.0987   -5.6679    2.1953 C.3       1 <0>         0.0610
     18 C18         2.9581   -2.6968   -1.5724 C.3       1 <0>         0.0000
     19 C19         5.4441   -5.6231    1.4437 C.3       1 <0>         0.0000
     20 C20         4.2804   -8.7995    3.0961 C.3       1 <0>         0.0000
     21 C21         6.3911   -9.2134    5.1576 C.3       1 <0>         0.0000
     22 C22         5.5625   -7.9310    5.0711 C.3       1 <0>         0.0000
     23 C23         6.8204   -9.5060    6.5895 C.3       1 <0>         0.2800
     24 C24         5.0782   -7.6104    3.6426 C.3       1 <0>         0.0000
     25 O1          9.5277   -9.7167    7.9124 O.3       1 <0>        -0.8167
     26 O2         -1.3014   -0.6098   -2.1336 O.2       1 <0>        -0.5700
     27 O3          2.6287   -7.4120    1.3872 O.2       1 <0>        -0.5700
     28 O4          7.7065   -9.0501    9.4159 O.2       1 <0>        -0.8167
     29 O5          9.2535   -7.3559    8.5455 O.2       1 <0>        -0.8167
     30 O6          7.6187   -8.4283    7.0590 O.3       1 <0>        -0.4637
     31 S1          8.6171   -8.6564    8.3418 S.o2      1 <0>         1.6337
     32 H1          1.7714   -0.2251    1.6135 H         1 <0>         0.1500
     33 H2          0.0003    0.0002   -0.0001 H         1 <0>         0.1500
     34 H3          3.4155   -1.5047    2.7491 H         1 <0>         0.1500
     35 H4         -0.9660   -3.0949   -2.7512 H         1 <0>         0.0000
     36 H5          0.6022   -2.4064   -3.2029 H         1 <0>         0.0000
     37 H6          3.4445   -5.3628   -0.6369 H         1 <0>         0.0000
     38 H7          1.7735   -5.8804   -0.3920 H         1 <0>         0.0000
     39 H8         -0.1524   -3.9705   -0.6847 H         1 <0>         0.0000
     40 H9          0.9430   -4.4864   -1.9618 H         1 <0>         0.0000
     41 H10         4.0144   -3.1796    4.4653 H         1 <0>         0.0000
     42 H11         5.3994   -3.4390    3.3963 H         1 <0>         0.0000
     43 H12         5.8694   -5.3151    4.6450 H         1 <0>         0.0000
     44 H13         4.3104   -5.2623    5.4714 H         1 <0>         0.0000
     45 H14         4.2678   -3.2271    0.9157 H         1 <0>         0.0000
     46 H15         1.3362   -4.1106    1.1841 H         1 <0>         0.0000
     47 H16         2.5535   -4.4515    3.1073 H         1 <0>         0.0000
     48 H17         3.2283   -6.6104    3.9404 H         1 <0>         0.0000
     49 H18         3.2850   -3.6286   -2.0152 H         1 <0>         0.0000
     50 H19         3.7697   -2.2435   -1.0182 H         1 <0>         0.0000
     51 H20         2.6102   -2.0207   -2.3426 H         1 <0>         0.0000
     52 H21         6.2005   -5.2008    2.0953 H         1 <0>         0.0000
     53 H22         5.3355   -5.0069    0.5586 H         1 <0>         0.0000
     54 H23         5.7248   -6.6306    1.1587 H         1 <0>         0.0000
     55 H24         3.3864   -8.9844    3.7009 H         1 <0>         0.0000
     56 H25         4.8837   -9.7137    3.0936 H         1 <0>         0.0000
     57 H26         3.9524   -8.6071    2.0692 H         1 <0>         0.0000
     58 H27         5.8230  -10.0703    4.7785 H         1 <0>         0.0000
     59 H28         7.2813   -9.1345    4.5214 H         1 <0>         0.0000
     60 H29         6.1718   -7.0944    5.4372 H         1 <0>         0.0000
     61 H30         4.6997   -8.0091    5.7448 H         1 <0>         0.0000
     62 H31         7.4124  -10.4254    6.6391 H         1 <0>         0.0000
     63 H32         5.9503   -9.6059    7.2462 H         1 <0>         0.0000
     64 H33         5.9579   -7.4756    2.9974 H         1 <0>         0.0000
@<TRIPOS>BOND
     1    1    3 2
     2    1    4 1
     3    2    4 2
     4    2    5 1
     5    3   12 1
     6    4   16 1
     7    5    7 1
     8    5   26 2
     9    6    8 1
    10    6   17 1
    11    6   27 2
    12    7    9 1
    13    8   13 1
    14    9   16 1
    15   10   11 1
    16   10   14 1
    17   11   15 1
    18   12   13 1
    19   12   14 1
    20   13   16 1
    21   14   17 1
    22   15   17 1
    23   15   24 1
    24   16   18 1
    25   17   19 1
    26   20   24 1
    27   21   22 1
    28   21   23 1
    29   22   24 1
    30   23   30 1
    31   25   31 1
    32   28   31 2
    33   29   31 2
    34   30   31 1
    35    1   32 1
    36    2   33 1
    37    3   34 1
    38    7   35 1
    39    7   36 1
    40    8   37 1
    41    8   38 1
    42    9   39 1
    43    9   40 1
    44   10   41 1
    45   10   42 1
    46   11   43 1
    47   11   44 1
    48   12   45 1
    49   13   46 1
    50   14   47 1
    51   15   48 1
    52   18   49 1
    53   18   50 1
    54   18   51 1
    55   19   52 1
    56   19   53 1
    57   19   54 1
    58   20   55 1
    59   20   56 1
    60   20   57 1
    61   21   58 1
    62   21   59 1
    63   22   60 1
    64   22   61 1
    65   23   62 1
    66   23   63 1
    67   24   64 1
@<TRIPOS>MOLECULE
DKPES_CSD_MMMF_1_21
   64    67     0     0     0
SMALL
USER_CHARGES

@<TRIPOS>ATOM
      1 C1          2.0121   -1.2143    1.2319 C.2       1 <0>        -0.1500
      2 C2          0.3162   -0.9298   -0.4630 C.2       1 <0>        -0.1356
      3 C3          2.9245   -1.9459    1.8863 C.2       1 <0>        -0.2882
      4 C4          1.3270   -1.6661    0.0290 C.2       1 <0>        -0.1382
      5 C5         -0.4261   -1.3440   -1.6772 C.2       1 <0>         0.4946
      6 C6          3.0520   -6.2645    1.2605 C.2       1 <0>         0.4480
      7 C7         -0.0521   -2.6371   -2.3563 C.3       1 <0>         0.0610
      8 C8          2.6249   -5.3856    0.0869 C.3       1 <0>         0.0610
      9 C9          0.6099   -3.6118   -1.3906 C.3       1 <0>         0.0000
     10 C10         4.4784   -3.8939    3.7777 C.3       1 <0>         0.0000
     11 C11         4.7891   -5.2227    4.4865 C.3       1 <0>         0.0000
     12 C12         3.3262   -3.3340    1.4645 C.3       1 <0>         0.1382
     13 C13         2.2273   -3.9675    0.5485 C.3       1 <0>         0.0000
     14 C14         3.5426   -4.2948    2.6428 C.3       1 <0>         0.0000
     15 C15         4.2322   -6.3446    3.5783 C.3       1 <0>         0.0000
     16 C16         1.7910   -2.9885   -0.5996 C.3       1 <0>         0.1382
     17 C17         4.0987   -5.6679    2.1953 C.3       1 <0>         0.0610
     18 C18         2.9581   -2.6968   -1.5724 C.3       1 <0>         0.0000
     19 C19         5.4441   -5.6231    1.4437 C.3       1 <0>         0.0000
     20 C20         4.5183   -8.6617    2.6779 C.3       1 <0>         0.0000
     21 C21         6.1805   -7.5138    5.9587 C.3       1 <0>         0.0000
     22 C22         5.1520   -8.2058    5.0632 C.3       1 <0>         0.0000
     23 C23         6.2405   -8.1544    7.3393 C.3       1 <0>         0.2800
     24 C24         5.0782   -7.6104    3.6426 C.3       1 <0>         0.0000
     25 O1          8.5515   -7.0585   10.1371 O.3       1 <0>        -0.8167
     26 O2         -1.3014   -0.6098   -2.1336 O.2       1 <0>        -0.5700
     27 O3          2.6287   -7.4120    1.3872 O.2       1 <0>        -0.5700
     28 O4          7.9343   -9.3495    9.5111 O.2       1 <0>        -0.8167
     29 O5          6.2157   -7.8033   10.3339 O.2       1 <0>        -0.8167
     30 O6          7.2207   -7.4801    8.1163 O.3       1 <0>        -0.4637
     31 S1          7.5039   -7.9601    9.6602 S.o2      1 <0>         1.6337
     32 H1          1.7714   -0.2251    1.6135 H         1 <0>         0.1500
     33 H2          0.0003    0.0002   -0.0001 H         1 <0>         0.1500
     34 H3          3.4155   -1.5047    2.7491 H         1 <0>         0.1500
     35 H4         -0.9660   -3.0949   -2.7512 H         1 <0>         0.0000
     36 H5          0.6022   -2.4064   -3.2029 H         1 <0>         0.0000
     37 H6          3.4445   -5.3628   -0.6369 H         1 <0>         0.0000
     38 H7          1.7735   -5.8804   -0.3920 H         1 <0>         0.0000
     39 H8         -0.1524   -3.9705   -0.6847 H         1 <0>         0.0000
     40 H9          0.9430   -4.4864   -1.9618 H         1 <0>         0.0000
     41 H10         4.0144   -3.1796    4.4653 H         1 <0>         0.0000
     42 H11         5.3994   -3.4390    3.3963 H         1 <0>         0.0000
     43 H12         5.8694   -5.3151    4.6450 H         1 <0>         0.0000
     44 H13         4.3104   -5.2623    5.4714 H         1 <0>         0.0000
     45 H14         4.2678   -3.2271    0.9157 H         1 <0>         0.0000
     46 H15         1.3362   -4.1106    1.1841 H         1 <0>         0.0000
     47 H16         2.5535   -4.4515    3.1073 H         1 <0>         0.0000
     48 H17         3.2283   -6.6104    3.9404 H         1 <0>         0.0000
     49 H18         3.2850   -3.6286   -2.0152 H         1 <0>         0.0000
     50 H19         3.7697   -2.2435   -1.0182 H         1 <0>         0.0000
     51 H20         2.6102   -2.0207   -2.3426 H         1 <0>         0.0000
     52 H21         6.2005   -5.2008    2.0953 H         1 <0>         0.0000
     53 H22         5.3355   -5.0069    0.5586 H         1 <0>         0.0000
     54 H23         5.7248   -6.6306    1.1587 H         1 <0>         0.0000
     55 H24         3.4984   -8.9472    2.9564 H         1 <0>         0.0000
     56 H25         5.1358   -9.5663    2.6762 H         1 <0>         0.0000
     57 H26         4.4862   -8.2713    1.6553 H         1 <0>         0.0000
     58 H27         7.1787   -7.5543    5.5083 H         1 <0>         0.0000
     59 H28         5.9383   -6.4490    6.0634 H         1 <0>         0.0000
     60 H29         4.1645   -8.1244    5.5357 H         1 <0>         0.0000
     61 H30         5.3837   -9.2768    5.0032 H         1 <0>         0.0000
     62 H31         6.5191   -9.2106    7.2675 H         1 <0>         0.0000
     63 H32         5.2759   -8.0737    7.8504 H         1 <0>         0.0000
     64 H33         6.0978   -7.3661    3.3127 H         1 <0>         0.0000
@<TRIPOS>BOND
     1    1    3 2
     2    1    4 1
     3    2    4 2
     4    2    5 1
     5    3   12 1
     6    4   16 1
     7    5    7 1
     8    5   26 2
     9    6    8 1
    10    6   17 1
    11    6   27 2
    12    7    9 1
    13    8   13 1
    14    9   16 1
    15   10   11 1
    16   10   14 1
    17   11   15 1
    18   12   13 1
    19   12   14 1
    20   13   16 1
    21   14   17 1
    22   15   17 1
    23   15   24 1
    24   16   18 1
    25   17   19 1
    26   20   24 1
    27   21   22 1
    28   21   23 1
    29   22   24 1
    30   23   30 1
    31   25   31 1
    32   28   31 2
    33   29   31 2
    34   30   31 1
    35    1   32 1
    36    2   33 1
    37    3   34 1
    38    7   35 1
    39    7   36 1
    40    8   37 1
    41    8   38 1
    42    9   39 1
    43    9   40 1
    44   10   41 1
    45   10   42 1
    46   11   43 1
    47   11   44 1
    48   12   45 1
    49   13   46 1
    50   14   47 1
    51   15   48 1
    52   18   49 1
    53   18   50 1
    54   18   51 1
    55   19   52 1
    56   19   53 1
    57   19   54 1
    58   20   55 1
    59   20   56 1
    60   20   57 1
    61   21   58 1
    62   21   59 1
    63   22   60 1
    64   22   61 1
    65   23   62 1
    66   23   63 1
    67   24   64 1
@<TRIPOS>MOLECULE
DKPES_CSD_MMMF_1_22
   64    67     0     0     0
SMALL
USER_CHARGES

@<TRIPOS>ATOM
      1 C1          2.0121   -1.2143    1.2319 C.2       1 <0>        -0.1500
      2 C2          0.3162   -0.9298   -0.4630 C.2       1 <0>        -0.1356
      3 C3          2.9245   -1.9459    1.8863 C.2       1 <0>        -0.2882
      4 C4          1.3270   -1.6661    0.0290 C.2       1 <0>        -0.1382
      5 C5         -0.4261   -1.3440   -1.6772 C.2       1 <0>         0.4946
      6 C6          3.0520   -6.2645    1.2605 C.2       1 <0>         0.4480
      7 C7         -0.0521   -2.6371   -2.3563 C.3       1 <0>         0.0610
      8 C8          2.6249   -5.3856    0.0869 C.3       1 <0>         0.0610
      9 C9          0.6099   -3.6118   -1.3906 C.3       1 <0>         0.0000
     10 C10         4.4784   -3.8939    3.7777 C.3       1 <0>         0.0000
     11 C11         4.7891   -5.2227    4.4865 C.3       1 <0>         0.0000
     12 C12         3.3262   -3.3340    1.4645 C.3       1 <0>         0.1382
     13 C13         2.2273   -3.9675    0.5485 C.3       1 <0>         0.0000
     14 C14         3.5426   -4.2948    2.6428 C.3       1 <0>         0.0000
     15 C15         4.2322   -6.3446    3.5783 C.3       1 <0>         0.0000
     16 C16         1.7910   -2.9885   -0.5996 C.3       1 <0>         0.1382
     17 C17         4.0987   -5.6679    2.1953 C.3       1 <0>         0.0610
     18 C18         2.9581   -2.6968   -1.5724 C.3       1 <0>         0.0000
     19 C19         5.4441   -5.6231    1.4437 C.3       1 <0>         0.0000
     20 C20         4.5183   -8.6617    2.6779 C.3       1 <0>         0.0000
     21 C21         5.5328   -9.6867    5.0816 C.3       1 <0>         0.0000
     22 C22         5.1520   -8.2058    5.0632 C.3       1 <0>         0.0000
     23 C23         5.5627  -10.2385    6.5010 C.3       1 <0>         0.2800
     24 C24         5.0782   -7.6104    3.6426 C.3       1 <0>         0.0000
     25 O1          8.2156  -11.1163    7.1221 O.3       1 <0>        -0.8167
     26 O2         -1.3014   -0.6098   -2.1336 O.2       1 <0>        -0.5700
     27 O3          2.6287   -7.4120    1.3872 O.2       1 <0>        -0.5700
     28 O4          7.7225  -11.8879    4.8455 O.2       1 <0>        -0.8167
     29 O5          7.5230  -13.4439    6.7323 O.2       1 <0>        -0.8167
     30 O6          5.9065  -11.6164    6.4510 O.3       1 <0>        -0.4637
     31 S1          7.4786  -12.0551    6.2774 S.o2      1 <0>         1.6337
     32 H1          1.7714   -0.2251    1.6135 H         1 <0>         0.1500
     33 H2          0.0003    0.0002   -0.0001 H         1 <0>         0.1500
     34 H3          3.4155   -1.5047    2.7491 H         1 <0>         0.1500
     35 H4         -0.9660   -3.0949   -2.7512 H         1 <0>         0.0000
     36 H5          0.6022   -2.4064   -3.2029 H         1 <0>         0.0000
     37 H6          3.4445   -5.3628   -0.6369 H         1 <0>         0.0000
     38 H7          1.7735   -5.8804   -0.3920 H         1 <0>         0.0000
     39 H8         -0.1524   -3.9705   -0.6847 H         1 <0>         0.0000
     40 H9          0.9430   -4.4864   -1.9618 H         1 <0>         0.0000
     41 H10         4.0144   -3.1796    4.4653 H         1 <0>         0.0000
     42 H11         5.3994   -3.4390    3.3963 H         1 <0>         0.0000
     43 H12         5.8694   -5.3151    4.6450 H         1 <0>         0.0000
     44 H13         4.3104   -5.2623    5.4714 H         1 <0>         0.0000
     45 H14         4.2678   -3.2271    0.9157 H         1 <0>         0.0000
     46 H15         1.3362   -4.1106    1.1841 H         1 <0>         0.0000
     47 H16         2.5535   -4.4515    3.1073 H         1 <0>         0.0000
     48 H17         3.2283   -6.6104    3.9404 H         1 <0>         0.0000
     49 H18         3.2850   -3.6286   -2.0152 H         1 <0>         0.0000
     50 H19         3.7697   -2.2435   -1.0182 H         1 <0>         0.0000
     51 H20         2.6102   -2.0207   -2.3426 H         1 <0>         0.0000
     52 H21         6.2005   -5.2008    2.0953 H         1 <0>         0.0000
     53 H22         5.3355   -5.0069    0.5586 H         1 <0>         0.0000
     54 H23         5.7248   -6.6306    1.1587 H         1 <0>         0.0000
     55 H24         3.4984   -8.9472    2.9564 H         1 <0>         0.0000
     56 H25         5.1358   -9.5663    2.6762 H         1 <0>         0.0000
     57 H26         4.4862   -8.2713    1.6553 H         1 <0>         0.0000
     58 H27         4.8255  -10.2780    4.4891 H         1 <0>         0.0000
     59 H28         6.5150   -9.8326    4.6154 H         1 <0>         0.0000
     60 H29         5.8943   -7.6456    5.6465 H         1 <0>         0.0000
     61 H30         4.1882   -8.0715    5.5705 H         1 <0>         0.0000
     62 H31         4.5823  -10.1413    6.9781 H         1 <0>         0.0000
     63 H32         6.3085   -9.7160    7.1084 H         1 <0>         0.0000
     64 H33         6.0978   -7.3661    3.3127 H         1 <0>         0.0000
@<TRIPOS>BOND
     1    1    3 2
     2    1    4 1
     3    2    4 2
     4    2    5 1
     5    3   12 1
     6    4   16 1
     7    5    7 1
     8    5   26 2
     9    6    8 1
    10    6   17 1
    11    6   27 2
    12    7    9 1
    13    8   13 1
    14    9   16 1
    15   10   11 1
    16   10   14 1
    17   11   15 1
    18   12   13 1
    19   12   14 1
    20   13   16 1
    21   14   17 1
    22   15   17 1
    23   15   24 1
    24   16   18 1
    25   17   19 1
    26   20   24 1
    27   21   22 1
    28   21   23 1
    29   22   24 1
    30   23   30 1
    31   25   31 1
    32   28   31 2
    33   29   31 2
    34   30   31 1
    35    1   32 1
    36    2   33 1
    37    3   34 1
    38    7   35 1
    39    7   36 1
    40    8   37 1
    41    8   38 1
    42    9   39 1
    43    9   40 1
    44   10   41 1
    45   10   42 1
    46   11   43 1
    47   11   44 1
    48   12   45 1
    49   13   46 1
    50   14   47 1
    51   15   48 1
    52   18   49 1
    53   18   50 1
    54   18   51 1
    55   19   52 1
    56   19   53 1
    57   19   54 1
    58   20   55 1
    59   20   56 1
    60   20   57 1
    61   21   58 1
    62   21   59 1
    63   22   60 1
    64   22   61 1
    65   23   62 1
    66   23   63 1
    67   24   64 1
@<TRIPOS>MOLECULE
DKPES_CSD_MMMF_1_23
   64    67     0     0     0
SMALL
USER_CHARGES

@<TRIPOS>ATOM
      1 C1          2.0121   -1.2143    1.2319 C.2       1 <0>        -0.1500
      2 C2          0.3162   -0.9298   -0.4630 C.2       1 <0>        -0.1356
      3 C3          2.9245   -1.9459    1.8863 C.2       1 <0>        -0.2882
      4 C4          1.3270   -1.6661    0.0290 C.2       1 <0>        -0.1382
      5 C5         -0.4261   -1.3440   -1.6772 C.2       1 <0>         0.4946
      6 C6          3.0520   -6.2645    1.2605 C.2       1 <0>         0.4480
      7 C7         -0.0521   -2.6371   -2.3563 C.3       1 <0>         0.0610
      8 C8          2.6249   -5.3856    0.0869 C.3       1 <0>         0.0610
      9 C9          0.6099   -3.6118   -1.3906 C.3       1 <0>         0.0000
     10 C10         4.4784   -3.8939    3.7777 C.3       1 <0>         0.0000
     11 C11         4.7891   -5.2227    4.4865 C.3       1 <0>         0.0000
     12 C12         3.3262   -3.3340    1.4645 C.3       1 <0>         0.1382
     13 C13         2.2273   -3.9675    0.5485 C.3       1 <0>         0.0000
     14 C14         3.5426   -4.2948    2.6428 C.3       1 <0>         0.0000
     15 C15         4.2322   -6.3446    3.5783 C.3       1 <0>         0.0000
     16 C16         1.7910   -2.9885   -0.5996 C.3       1 <0>         0.1382
     17 C17         4.0987   -5.6679    2.1953 C.3       1 <0>         0.0610
     18 C18         2.9581   -2.6968   -1.5724 C.3       1 <0>         0.0000
     19 C19         5.4441   -5.6231    1.4437 C.3       1 <0>         0.0000
     20 C20         4.5183   -8.6617    2.6779 C.3       1 <0>         0.0000
     21 C21         5.5328   -9.6867    5.0816 C.3       1 <0>         0.0000
     22 C22         5.1520   -8.2058    5.0632 C.3       1 <0>         0.0000
     23 C23         6.9113   -9.9170    4.4760 C.3       1 <0>         0.2800
     24 C24         5.0782   -7.6104    3.6426 C.3       1 <0>         0.0000
     25 O1          9.4243  -10.9171    3.5387 O.3       1 <0>        -0.8167
     26 O2         -1.3014   -0.6098   -2.1336 O.2       1 <0>        -0.5700
     27 O3          2.6287   -7.4120    1.3872 O.2       1 <0>        -0.5700
     28 O4          7.6748  -12.0786    2.2691 O.2       1 <0>        -0.8167
     29 O5          8.7425  -13.1924    4.1772 O.2       1 <0>        -0.8167
     30 O6          7.2132  -11.3043    4.5356 O.3       1 <0>        -0.4637
     31 S1          8.3670  -11.9271    3.5481 S.o2      1 <0>         1.6337
     32 H1          1.7714   -0.2251    1.6135 H         1 <0>         0.1500
     33 H2          0.0003    0.0002   -0.0001 H         1 <0>         0.1500
     34 H3          3.4155   -1.5047    2.7491 H         1 <0>         0.1500
     35 H4         -0.9660   -3.0949   -2.7512 H         1 <0>         0.0000
     36 H5          0.6022   -2.4064   -3.2029 H         1 <0>         0.0000
     37 H6          3.4445   -5.3628   -0.6369 H         1 <0>         0.0000
     38 H7          1.7735   -5.8804   -0.3920 H         1 <0>         0.0000
     39 H8         -0.1524   -3.9705   -0.6847 H         1 <0>         0.0000
     40 H9          0.9430   -4.4864   -1.9618 H         1 <0>         0.0000
     41 H10         4.0144   -3.1796    4.4653 H         1 <0>         0.0000
     42 H11         5.3994   -3.4390    3.3963 H         1 <0>         0.0000
     43 H12         5.8694   -5.3151    4.6450 H         1 <0>         0.0000
     44 H13         4.3104   -5.2623    5.4714 H         1 <0>         0.0000
     45 H14         4.2678   -3.2271    0.9157 H         1 <0>         0.0000
     46 H15         1.3362   -4.1106    1.1841 H         1 <0>         0.0000
     47 H16         2.5535   -4.4515    3.1073 H         1 <0>         0.0000
     48 H17         3.2283   -6.6104    3.9404 H         1 <0>         0.0000
     49 H18         3.2850   -3.6286   -2.0152 H         1 <0>         0.0000
     50 H19         3.7697   -2.2435   -1.0182 H         1 <0>         0.0000
     51 H20         2.6102   -2.0207   -2.3426 H         1 <0>         0.0000
     52 H21         6.2005   -5.2008    2.0953 H         1 <0>         0.0000
     53 H22         5.3355   -5.0069    0.5586 H         1 <0>         0.0000
     54 H23         5.7248   -6.6306    1.1587 H         1 <0>         0.0000
     55 H24         3.4984   -8.9472    2.9564 H         1 <0>         0.0000
     56 H25         5.1358   -9.5663    2.6762 H         1 <0>         0.0000
     57 H26         4.4862   -8.2713    1.6553 H         1 <0>         0.0000
     58 H27         5.5287  -10.0770    6.1056 H         1 <0>         0.0000
     59 H28         4.7911  -10.2770    4.5294 H         1 <0>         0.0000
     60 H29         5.8943   -7.6456    5.6465 H         1 <0>         0.0000
     61 H30         4.1882   -8.0715    5.5705 H         1 <0>         0.0000
     62 H31         7.6784   -9.3694    5.0327 H         1 <0>         0.0000
     63 H32         6.9363   -9.6005    3.4285 H         1 <0>         0.0000
     64 H33         6.0978   -7.3661    3.3127 H         1 <0>         0.0000
@<TRIPOS>BOND
     1    1    3 2
     2    1    4 1
     3    2    4 2
     4    2    5 1
     5    3   12 1
     6    4   16 1
     7    5    7 1
     8    5   26 2
     9    6    8 1
    10    6   17 1
    11    6   27 2
    12    7    9 1
    13    8   13 1
    14    9   16 1
    15   10   11 1
    16   10   14 1
    17   11   15 1
    18   12   13 1
    19   12   14 1
    20   13   16 1
    21   14   17 1
    22   15   17 1
    23   15   24 1
    24   16   18 1
    25   17   19 1
    26   20   24 1
    27   21   22 1
    28   21   23 1
    29   22   24 1
    30   23   30 1
    31   25   31 1
    32   28   31 2
    33   29   31 2
    34   30   31 1
    35    1   32 1
    36    2   33 1
    37    3   34 1
    38    7   35 1
    39    7   36 1
    40    8   37 1
    41    8   38 1
    42    9   39 1
    43    9   40 1
    44   10   41 1
    45   10   42 1
    46   11   43 1
    47   11   44 1
    48   12   45 1
    49   13   46 1
    50   14   47 1
    51   15   48 1
    52   18   49 1
    53   18   50 1
    54   18   51 1
    55   19   52 1
    56   19   53 1
    57   19   54 1
    58   20   55 1
    59   20   56 1
    60   20   57 1
    61   21   58 1
    62   21   59 1
    63   22   60 1
    64   22   61 1
    65   23   62 1
    66   23   63 1
    67   24   64 1
@<TRIPOS>MOLECULE
DKPES_CSD_MMMF_1_24
   64    67     0     0     0
SMALL
USER_CHARGES

@<TRIPOS>ATOM
      1 C1          2.0121   -1.2143    1.2319 C.2       1 <0>        -0.1500
      2 C2          0.3162   -0.9298   -0.4630 C.2       1 <0>        -0.1356
      3 C3          2.9245   -1.9459    1.8863 C.2       1 <0>        -0.2882
      4 C4          1.3270   -1.6661    0.0290 C.2       1 <0>        -0.1382
      5 C5         -0.4261   -1.3440   -1.6772 C.2       1 <0>         0.4946
      6 C6          3.0520   -6.2645    1.2605 C.2       1 <0>         0.4480
      7 C7         -0.0521   -2.6371   -2.3563 C.3       1 <0>         0.0610
      8 C8          2.6249   -5.3856    0.0869 C.3       1 <0>         0.0610
      9 C9          0.6099   -3.6118   -1.3906 C.3       1 <0>         0.0000
     10 C10         4.4784   -3.8939    3.7777 C.3       1 <0>         0.0000
     11 C11         4.7891   -5.2227    4.4865 C.3       1 <0>         0.0000
     12 C12         3.3262   -3.3340    1.4645 C.3       1 <0>         0.1382
     13 C13         2.2273   -3.9675    0.5485 C.3       1 <0>         0.0000
     14 C14         3.5426   -4.2948    2.6428 C.3       1 <0>         0.0000
     15 C15         4.2322   -6.3446    3.5783 C.3       1 <0>         0.0000
     16 C16         1.7910   -2.9885   -0.5996 C.3       1 <0>         0.1382
     17 C17         4.0987   -5.6679    2.1953 C.3       1 <0>         0.0610
     18 C18         2.9581   -2.6968   -1.5724 C.3       1 <0>         0.0000
     19 C19         5.4441   -5.6231    1.4437 C.3       1 <0>         0.0000
     20 C20         4.5183   -8.6617    2.6779 C.3       1 <0>         0.0000
     21 C21         6.1805   -7.5138    5.9587 C.3       1 <0>         0.0000
     22 C22         5.1520   -8.2058    5.0632 C.3       1 <0>         0.0000
     23 C23         6.2405   -8.1544    7.3393 C.3       1 <0>         0.2800
     24 C24         5.0782   -7.6104    3.6426 C.3       1 <0>         0.0000
     25 O1          7.0922  -11.7875    8.0064 O.3       1 <0>        -0.8167
     26 O2         -1.3014   -0.6098   -2.1336 O.2       1 <0>        -0.5700
     27 O3          2.6287   -7.4120    1.3872 O.2       1 <0>        -0.5700
     28 O4          5.3964  -10.4133    9.1278 O.2       1 <0>        -0.8167
     29 O5          7.7708   -9.8269    9.3274 O.2       1 <0>        -0.8167
     30 O6          6.5899   -9.5242    7.1953 O.3       1 <0>        -0.4637
     31 S1          6.7290  -10.4711    8.5289 S.o2      1 <0>         1.6337
     32 H1          1.7714   -0.2251    1.6135 H         1 <0>         0.1500
     33 H2          0.0003    0.0002   -0.0001 H         1 <0>         0.1500
     34 H3          3.4155   -1.5047    2.7491 H         1 <0>         0.1500
     35 H4         -0.9660   -3.0949   -2.7512 H         1 <0>         0.0000
     36 H5          0.6022   -2.4064   -3.2029 H         1 <0>         0.0000
     37 H6          3.4445   -5.3628   -0.6369 H         1 <0>         0.0000
     38 H7          1.7735   -5.8804   -0.3920 H         1 <0>         0.0000
     39 H8         -0.1524   -3.9705   -0.6847 H         1 <0>         0.0000
     40 H9          0.9430   -4.4864   -1.9618 H         1 <0>         0.0000
     41 H10         4.0144   -3.1796    4.4653 H         1 <0>         0.0000
     42 H11         5.3994   -3.4390    3.3963 H         1 <0>         0.0000
     43 H12         5.8694   -5.3151    4.6450 H         1 <0>         0.0000
     44 H13         4.3104   -5.2623    5.4714 H         1 <0>         0.0000
     45 H14         4.2678   -3.2271    0.9157 H         1 <0>         0.0000
     46 H15         1.3362   -4.1106    1.1841 H         1 <0>         0.0000
     47 H16         2.5535   -4.4515    3.1073 H         1 <0>         0.0000
     48 H17         3.2283   -6.6104    3.9404 H         1 <0>         0.0000
     49 H18         3.2850   -3.6286   -2.0152 H         1 <0>         0.0000
     50 H19         3.7697   -2.2435   -1.0182 H         1 <0>         0.0000
     51 H20         2.6102   -2.0207   -2.3426 H         1 <0>         0.0000
     52 H21         6.2005   -5.2008    2.0953 H         1 <0>         0.0000
     53 H22         5.3355   -5.0069    0.5586 H         1 <0>         0.0000
     54 H23         5.7248   -6.6306    1.1587 H         1 <0>         0.0000
     55 H24         3.4984   -8.9472    2.9564 H         1 <0>         0.0000
     56 H25         5.1358   -9.5663    2.6762 H         1 <0>         0.0000
     57 H26         4.4862   -8.2713    1.6553 H         1 <0>         0.0000
     58 H27         7.1787   -7.5543    5.5083 H         1 <0>         0.0000
     59 H28         5.9383   -6.4490    6.0634 H         1 <0>         0.0000
     60 H29         4.1645   -8.1244    5.5357 H         1 <0>         0.0000
     61 H30         5.3837   -9.2768    5.0032 H         1 <0>         0.0000
     62 H31         5.2690   -8.0935    7.8401 H         1 <0>         0.0000
     63 H32         6.9954   -7.6670    7.9644 H         1 <0>         0.0000
     64 H33         6.0978   -7.3661    3.3127 H         1 <0>         0.0000
@<TRIPOS>BOND
     1    1    3 2
     2    1    4 1
     3    2    4 2
     4    2    5 1
     5    3   12 1
     6    4   16 1
     7    5    7 1
     8    5   26 2
     9    6    8 1
    10    6   17 1
    11    6   27 2
    12    7    9 1
    13    8   13 1
    14    9   16 1
    15   10   11 1
    16   10   14 1
    17   11   15 1
    18   12   13 1
    19   12   14 1
    20   13   16 1
    21   14   17 1
    22   15   17 1
    23   15   24 1
    24   16   18 1
    25   17   19 1
    26   20   24 1
    27   21   22 1
    28   21   23 1
    29   22   24 1
    30   23   30 1
    31   25   31 1
    32   28   31 2
    33   29   31 2
    34   30   31 1
    35    1   32 1
    36    2   33 1
    37    3   34 1
    38    7   35 1
    39    7   36 1
    40    8   37 1
    41    8   38 1
    42    9   39 1
    43    9   40 1
    44   10   41 1
    45   10   42 1
    46   11   43 1
    47   11   44 1
    48   12   45 1
    49   13   46 1
    50   14   47 1
    51   15   48 1
    52   18   49 1
    53   18   50 1
    54   18   51 1
    55   19   52 1
    56   19   53 1
    57   19   54 1
    58   20   55 1
    59   20   56 1
    60   20   57 1
    61   21   58 1
    62   21   59 1
    63   22   60 1
    64   22   61 1
    65   23   62 1
    66   23   63 1
    67   24   64 1
@<TRIPOS>MOLECULE
DKPES_CSD_MMMF_1_25
   64    67     0     0     0
SMALL
USER_CHARGES

@<TRIPOS>ATOM
      1 C1          2.0121   -1.2143    1.2319 C.2       1 <0>        -0.1500
      2 C2          0.3162   -0.9298   -0.4630 C.2       1 <0>        -0.1356
      3 C3          2.9245   -1.9459    1.8863 C.2       1 <0>        -0.2882
      4 C4          1.3270   -1.6661    0.0290 C.2       1 <0>        -0.1382
      5 C5         -0.4261   -1.3440   -1.6772 C.2       1 <0>         0.4946
      6 C6          3.0520   -6.2645    1.2605 C.2       1 <0>         0.4480
      7 C7         -0.0521   -2.6371   -2.3563 C.3       1 <0>         0.0610
      8 C8          2.6249   -5.3856    0.0869 C.3       1 <0>         0.0610
      9 C9          0.6099   -3.6118   -1.3906 C.3       1 <0>         0.0000
     10 C10         4.4784   -3.8939    3.7777 C.3       1 <0>         0.0000
     11 C11         4.7891   -5.2227    4.4865 C.3       1 <0>         0.0000
     12 C12         3.3262   -3.3340    1.4645 C.3       1 <0>         0.1382
     13 C13         2.2273   -3.9675    0.5485 C.3       1 <0>         0.0000
     14 C14         3.5426   -4.2948    2.6428 C.3       1 <0>         0.0000
     15 C15         4.2322   -6.3446    3.5783 C.3       1 <0>         0.0000
     16 C16         1.7910   -2.9885   -0.5996 C.3       1 <0>         0.1382
     17 C17         4.0987   -5.6679    2.1953 C.3       1 <0>         0.0610
     18 C18         2.9581   -2.6968   -1.5724 C.3       1 <0>         0.0000
     19 C19         5.4441   -5.6231    1.4437 C.3       1 <0>         0.0000
     20 C20         4.6826   -8.4407    4.8686 C.3       1 <0>         0.0000
     21 C21         7.4569   -8.5116    3.2985 C.3       1 <0>         0.0000
     22 C22         6.5907   -7.3138    3.6905 C.3       1 <0>         0.0000
     23 C23         8.9411   -8.1821    3.3905 C.3       1 <0>         0.2800
     24 C24         5.0782   -7.6104    3.6426 C.3       1 <0>         0.0000
     25 O1         10.1569   -9.8306    5.3900 O.3       1 <0>        -0.8167
     26 O2         -1.3014   -0.6098   -2.1336 O.2       1 <0>        -0.5700
     27 O3          2.6287   -7.4120    1.3872 O.2       1 <0>        -0.5700
     28 O4         11.0821  -11.2503    3.6153 O.2       1 <0>        -0.8167
     29 O5          8.6754  -11.3030    4.0913 O.2       1 <0>        -0.8167
     30 O6          9.6907   -9.3343    3.0302 O.3       1 <0>        -0.4637
     31 S1          9.9171  -10.5319    4.1297 S.o2      1 <0>         1.6337
     32 H1          1.7714   -0.2251    1.6135 H         1 <0>         0.1500
     33 H2          0.0003    0.0002   -0.0001 H         1 <0>         0.1500
     34 H3          3.4155   -1.5047    2.7491 H         1 <0>         0.1500
     35 H4         -0.9660   -3.0949   -2.7512 H         1 <0>         0.0000
     36 H5          0.6022   -2.4064   -3.2029 H         1 <0>         0.0000
     37 H6          3.4445   -5.3628   -0.6369 H         1 <0>         0.0000
     38 H7          1.7735   -5.8804   -0.3920 H         1 <0>         0.0000
     39 H8         -0.1524   -3.9705   -0.6847 H         1 <0>         0.0000
     40 H9          0.9430   -4.4864   -1.9618 H         1 <0>         0.0000
     41 H10         4.0144   -3.1796    4.4653 H         1 <0>         0.0000
     42 H11         5.3994   -3.4390    3.3963 H         1 <0>         0.0000
     43 H12         5.8694   -5.3151    4.6450 H         1 <0>         0.0000
     44 H13         4.3104   -5.2623    5.4714 H         1 <0>         0.0000
     45 H14         4.2678   -3.2271    0.9157 H         1 <0>         0.0000
     46 H15         1.3362   -4.1106    1.1841 H         1 <0>         0.0000
     47 H16         2.5535   -4.4515    3.1073 H         1 <0>         0.0000
     48 H17         3.2283   -6.6104    3.9404 H         1 <0>         0.0000
     49 H18         3.2850   -3.6286   -2.0152 H         1 <0>         0.0000
     50 H19         3.7697   -2.2435   -1.0182 H         1 <0>         0.0000
     51 H20         2.6102   -2.0207   -2.3426 H         1 <0>         0.0000
     52 H21         6.2005   -5.2008    2.0953 H         1 <0>         0.0000
     53 H22         5.3355   -5.0069    0.5586 H         1 <0>         0.0000
     54 H23         5.7248   -6.6306    1.1587 H         1 <0>         0.0000
     55 H24         4.8689   -7.8872    5.7950 H         1 <0>         0.0000
     56 H25         5.2494   -9.3769    4.9126 H         1 <0>         0.0000
     57 H26         3.6169   -8.6907    4.8400 H         1 <0>         0.0000
     58 H27         7.2468   -9.3719    3.9440 H         1 <0>         0.0000
     59 H28         7.2199   -8.8342    2.2771 H         1 <0>         0.0000
     60 H29         6.8129   -6.4825    3.0088 H         1 <0>         0.0000
     61 H30         6.8694   -6.9772    4.6971 H         1 <0>         0.0000
     62 H31         9.2143   -7.8938    4.4106 H         1 <0>         0.0000
     63 H32         9.2044   -7.3684    2.7071 H         1 <0>         0.0000
     64 H33         4.8690   -8.2160    2.7494 H         1 <0>         0.0000
@<TRIPOS>BOND
     1    1    3 2
     2    1    4 1
     3    2    4 2
     4    2    5 1
     5    3   12 1
     6    4   16 1
     7    5    7 1
     8    5   26 2
     9    6    8 1
    10    6   17 1
    11    6   27 2
    12    7    9 1
    13    8   13 1
    14    9   16 1
    15   10   11 1
    16   10   14 1
    17   11   15 1
    18   12   13 1
    19   12   14 1
    20   13   16 1
    21   14   17 1
    22   15   17 1
    23   15   24 1
    24   16   18 1
    25   17   19 1
    26   20   24 1
    27   21   22 1
    28   21   23 1
    29   22   24 1
    30   23   30 1
    31   25   31 1
    32   28   31 2
    33   29   31 2
    34   30   31 1
    35    1   32 1
    36    2   33 1
    37    3   34 1
    38    7   35 1
    39    7   36 1
    40    8   37 1
    41    8   38 1
    42    9   39 1
    43    9   40 1
    44   10   41 1
    45   10   42 1
    46   11   43 1
    47   11   44 1
    48   12   45 1
    49   13   46 1
    50   14   47 1
    51   15   48 1
    52   18   49 1
    53   18   50 1
    54   18   51 1
    55   19   52 1
    56   19   53 1
    57   19   54 1
    58   20   55 1
    59   20   56 1
    60   20   57 1
    61   21   58 1
    62   21   59 1
    63   22   60 1
    64   22   61 1
    65   23   62 1
    66   23   63 1
    67   24   64 1
@<TRIPOS>MOLECULE
DKPES_CSD_MMMF_1_26
   64    67     0     0     0
SMALL
USER_CHARGES

@<TRIPOS>ATOM
      1 C1          2.0121   -1.2143    1.2319 C.2       1 <0>        -0.1500
      2 C2          0.3162   -0.9298   -0.4630 C.2       1 <0>        -0.1356
      3 C3          2.9245   -1.9459    1.8863 C.2       1 <0>        -0.2882
      4 C4          1.3270   -1.6661    0.0290 C.2       1 <0>        -0.1382
      5 C5         -0.4261   -1.3440   -1.6772 C.2       1 <0>         0.4946
      6 C6          3.0520   -6.2645    1.2605 C.2       1 <0>         0.4480
      7 C7         -0.0521   -2.6371   -2.3563 C.3       1 <0>         0.0610
      8 C8          2.6249   -5.3856    0.0869 C.3       1 <0>         0.0610
      9 C9          0.6099   -3.6118   -1.3906 C.3       1 <0>         0.0000
     10 C10         4.4784   -3.8939    3.7777 C.3       1 <0>         0.0000
     11 C11         4.7891   -5.2227    4.4865 C.3       1 <0>         0.0000
     12 C12         3.3262   -3.3340    1.4645 C.3       1 <0>         0.1382
     13 C13         2.2273   -3.9675    0.5485 C.3       1 <0>         0.0000
     14 C14         3.5426   -4.2948    2.6428 C.3       1 <0>         0.0000
     15 C15         4.2322   -6.3446    3.5783 C.3       1 <0>         0.0000
     16 C16         1.7910   -2.9885   -0.5996 C.3       1 <0>         0.1382
     17 C17         4.0987   -5.6679    2.1953 C.3       1 <0>         0.0610
     18 C18         2.9581   -2.6968   -1.5724 C.3       1 <0>         0.0000
     19 C19         5.4441   -5.6231    1.4437 C.3       1 <0>         0.0000
     20 C20         4.6826   -8.4407    4.8686 C.3       1 <0>         0.0000
     21 C21         7.4569   -8.5116    3.2985 C.3       1 <0>         0.0000
     22 C22         6.5907   -7.3138    3.6905 C.3       1 <0>         0.0000
     23 C23         8.9411   -8.1821    3.3905 C.3       1 <0>         0.2800
     24 C24         5.0782   -7.6104    3.6426 C.3       1 <0>         0.0000
     25 O1         10.2091  -10.0104    5.1914 O.3       1 <0>        -0.8167
     26 O2         -1.3014   -0.6098   -2.1336 O.2       1 <0>        -0.5700
     27 O3          2.6287   -7.4120    1.3872 O.2       1 <0>        -0.5700
     28 O4          8.0937   -9.3322    6.2339 O.2       1 <0>        -0.8167
     29 O5         10.1951   -8.2793    6.9385 O.2       1 <0>        -0.8167
     30 O6          9.2450   -7.8001    4.7250 O.3       1 <0>        -0.4637
     31 S1          9.4591   -8.9553    5.8713 S.o2      1 <0>         1.6337
     32 H1          1.7714   -0.2251    1.6135 H         1 <0>         0.1500
     33 H2          0.0003    0.0002   -0.0001 H         1 <0>         0.1500
     34 H3          3.4155   -1.5047    2.7491 H         1 <0>         0.1500
     35 H4         -0.9660   -3.0949   -2.7512 H         1 <0>         0.0000
     36 H5          0.6022   -2.4064   -3.2029 H         1 <0>         0.0000
     37 H6          3.4445   -5.3628   -0.6369 H         1 <0>         0.0000
     38 H7          1.7735   -5.8804   -0.3920 H         1 <0>         0.0000
     39 H8         -0.1524   -3.9705   -0.6847 H         1 <0>         0.0000
     40 H9          0.9430   -4.4864   -1.9618 H         1 <0>         0.0000
     41 H10         4.0144   -3.1796    4.4653 H         1 <0>         0.0000
     42 H11         5.3994   -3.4390    3.3963 H         1 <0>         0.0000
     43 H12         5.8694   -5.3151    4.6450 H         1 <0>         0.0000
     44 H13         4.3104   -5.2623    5.4714 H         1 <0>         0.0000
     45 H14         4.2678   -3.2271    0.9157 H         1 <0>         0.0000
     46 H15         1.3362   -4.1106    1.1841 H         1 <0>         0.0000
     47 H16         2.5535   -4.4515    3.1073 H         1 <0>         0.0000
     48 H17         3.2283   -6.6104    3.9404 H         1 <0>         0.0000
     49 H18         3.2850   -3.6286   -2.0152 H         1 <0>         0.0000
     50 H19         3.7697   -2.2435   -1.0182 H         1 <0>         0.0000
     51 H20         2.6102   -2.0207   -2.3426 H         1 <0>         0.0000
     52 H21         6.2005   -5.2008    2.0953 H         1 <0>         0.0000
     53 H22         5.3355   -5.0069    0.5586 H         1 <0>         0.0000
     54 H23         5.7248   -6.6306    1.1587 H         1 <0>         0.0000
     55 H24         4.8689   -7.8872    5.7950 H         1 <0>         0.0000
     56 H25         5.2494   -9.3769    4.9126 H         1 <0>         0.0000
     57 H26         3.6169   -8.6907    4.8400 H         1 <0>         0.0000
     58 H27         7.2468   -9.3719    3.9440 H         1 <0>         0.0000
     59 H28         7.2199   -8.8342    2.2771 H         1 <0>         0.0000
     60 H29         6.8129   -6.4825    3.0088 H         1 <0>         0.0000
     61 H30         6.8694   -6.9772    4.6971 H         1 <0>         0.0000
     62 H31         9.1987   -7.3530    2.7237 H         1 <0>         0.0000
     63 H32         9.5521   -9.0523    3.1303 H         1 <0>         0.0000
     64 H33         4.8690   -8.2160    2.7494 H         1 <0>         0.0000
@<TRIPOS>BOND
     1    1    3 2
     2    1    4 1
     3    2    4 2
     4    2    5 1
     5    3   12 1
     6    4   16 1
     7    5    7 1
     8    5   26 2
     9    6    8 1
    10    6   17 1
    11    6   27 2
    12    7    9 1
    13    8   13 1
    14    9   16 1
    15   10   11 1
    16   10   14 1
    17   11   15 1
    18   12   13 1
    19   12   14 1
    20   13   16 1
    21   14   17 1
    22   15   17 1
    23   15   24 1
    24   16   18 1
    25   17   19 1
    26   20   24 1
    27   21   22 1
    28   21   23 1
    29   22   24 1
    30   23   30 1
    31   25   31 1
    32   28   31 2
    33   29   31 2
    34   30   31 1
    35    1   32 1
    36    2   33 1
    37    3   34 1
    38    7   35 1
    39    7   36 1
    40    8   37 1
    41    8   38 1
    42    9   39 1
    43    9   40 1
    44   10   41 1
    45   10   42 1
    46   11   43 1
    47   11   44 1
    48   12   45 1
    49   13   46 1
    50   14   47 1
    51   15   48 1
    52   18   49 1
    53   18   50 1
    54   18   51 1
    55   19   52 1
    56   19   53 1
    57   19   54 1
    58   20   55 1
    59   20   56 1
    60   20   57 1
    61   21   58 1
    62   21   59 1
    63   22   60 1
    64   22   61 1
    65   23   62 1
    66   23   63 1
    67   24   64 1
@<TRIPOS>MOLECULE
DKPES_CSD_MMMF_1_27
   64    67     0     0     0
SMALL
USER_CHARGES

@<TRIPOS>ATOM
      1 C1          2.0121   -1.2143    1.2319 C.2       1 <0>        -0.1500
      2 C2          0.3162   -0.9298   -0.4630 C.2       1 <0>        -0.1356
      3 C3          2.9245   -1.9459    1.8863 C.2       1 <0>        -0.2882
      4 C4          1.3270   -1.6661    0.0290 C.2       1 <0>        -0.1382
      5 C5         -0.4261   -1.3440   -1.6772 C.2       1 <0>         0.4946
      6 C6          3.0520   -6.2645    1.2605 C.2       1 <0>         0.4480
      7 C7         -0.0521   -2.6371   -2.3563 C.3       1 <0>         0.0610
      8 C8          2.6249   -5.3856    0.0869 C.3       1 <0>         0.0610
      9 C9          0.6099   -3.6118   -1.3906 C.3       1 <0>         0.0000
     10 C10         4.4784   -3.8939    3.7777 C.3       1 <0>         0.0000
     11 C11         4.7891   -5.2227    4.4865 C.3       1 <0>         0.0000
     12 C12         3.3262   -3.3340    1.4645 C.3       1 <0>         0.1382
     13 C13         2.2273   -3.9675    0.5485 C.3       1 <0>         0.0000
     14 C14         3.5426   -4.2948    2.6428 C.3       1 <0>         0.0000
     15 C15         4.2322   -6.3446    3.5783 C.3       1 <0>         0.0000
     16 C16         1.7910   -2.9885   -0.5996 C.3       1 <0>         0.1382
     17 C17         4.0987   -5.6679    2.1953 C.3       1 <0>         0.0610
     18 C18         2.9581   -2.6968   -1.5724 C.3       1 <0>         0.0000
     19 C19         5.4441   -5.6231    1.4437 C.3       1 <0>         0.0000
     20 C20         4.2804   -8.7995    3.0961 C.3       1 <0>         0.0000
     21 C21         4.4902   -8.5856    5.9430 C.3       1 <0>         0.0000
     22 C22         5.5625   -7.9310    5.0711 C.3       1 <0>         0.0000
     23 C23         5.0030   -8.8549    7.3518 C.3       1 <0>         0.2800
     24 C24         5.0782   -7.6104    3.6426 C.3       1 <0>         0.0000
     25 O1          5.5862  -10.3957    9.6927 O.3       1 <0>        -0.8167
     26 O2         -1.3014   -0.6098   -2.1336 O.2       1 <0>        -0.5700
     27 O3          2.6287   -7.4120    1.3872 O.2       1 <0>        -0.5700
     28 O4          3.1873  -10.8343    9.9660 O.2       1 <0>        -0.8167
     29 O5          4.0776   -8.5919   10.4138 O.2       1 <0>        -0.8167
     30 O6          3.9606   -9.4473    8.1145 O.3       1 <0>        -0.4637
     31 S1          4.2301   -9.8491    9.6830 S.o2      1 <0>         1.6337
     32 H1          1.7714   -0.2251    1.6135 H         1 <0>         0.1500
     33 H2          0.0003    0.0002   -0.0001 H         1 <0>         0.1500
     34 H3          3.4155   -1.5047    2.7491 H         1 <0>         0.1500
     35 H4         -0.9660   -3.0949   -2.7512 H         1 <0>         0.0000
     36 H5          0.6022   -2.4064   -3.2029 H         1 <0>         0.0000
     37 H6          3.4445   -5.3628   -0.6369 H         1 <0>         0.0000
     38 H7          1.7735   -5.8804   -0.3920 H         1 <0>         0.0000
     39 H8         -0.1524   -3.9705   -0.6847 H         1 <0>         0.0000
     40 H9          0.9430   -4.4864   -1.9618 H         1 <0>         0.0000
     41 H10         4.0144   -3.1796    4.4653 H         1 <0>         0.0000
     42 H11         5.3994   -3.4390    3.3963 H         1 <0>         0.0000
     43 H12         5.8694   -5.3151    4.6450 H         1 <0>         0.0000
     44 H13         4.3104   -5.2623    5.4714 H         1 <0>         0.0000
     45 H14         4.2678   -3.2271    0.9157 H         1 <0>         0.0000
     46 H15         1.3362   -4.1106    1.1841 H         1 <0>         0.0000
     47 H16         2.5535   -4.4515    3.1073 H         1 <0>         0.0000
     48 H17         3.2283   -6.6104    3.9404 H         1 <0>         0.0000
     49 H18         3.2850   -3.6286   -2.0152 H         1 <0>         0.0000
     50 H19         3.7697   -2.2435   -1.0182 H         1 <0>         0.0000
     51 H20         2.6102   -2.0207   -2.3426 H         1 <0>         0.0000
     52 H21         6.2005   -5.2008    2.0953 H         1 <0>         0.0000
     53 H22         5.3355   -5.0069    0.5586 H         1 <0>         0.0000
     54 H23         5.7248   -6.6306    1.1587 H         1 <0>         0.0000
     55 H24         3.3864   -8.9844    3.7009 H         1 <0>         0.0000
     56 H25         4.8837   -9.7137    3.0936 H         1 <0>         0.0000
     57 H26         3.9524   -8.6071    2.0692 H         1 <0>         0.0000
     58 H27         3.5999   -7.9500    6.0081 H         1 <0>         0.0000
     59 H28         4.1571   -9.5286    5.4922 H         1 <0>         0.0000
     60 H29         6.4263   -8.6059    5.0117 H         1 <0>         0.0000
     61 H30         5.9152   -7.0121    5.5565 H         1 <0>         0.0000
     62 H31         5.3067   -7.9240    7.8410 H         1 <0>         0.0000
     63 H32         5.8544   -9.5427    7.3335 H         1 <0>         0.0000
     64 H33         5.9579   -7.4756    2.9974 H         1 <0>         0.0000
@<TRIPOS>BOND
     1    1    3 2
     2    1    4 1
     3    2    4 2
     4    2    5 1
     5    3   12 1
     6    4   16 1
     7    5    7 1
     8    5   26 2
     9    6    8 1
    10    6   17 1
    11    6   27 2
    12    7    9 1
    13    8   13 1
    14    9   16 1
    15   10   11 1
    16   10   14 1
    17   11   15 1
    18   12   13 1
    19   12   14 1
    20   13   16 1
    21   14   17 1
    22   15   17 1
    23   15   24 1
    24   16   18 1
    25   17   19 1
    26   20   24 1
    27   21   22 1
    28   21   23 1
    29   22   24 1
    30   23   30 1
    31   25   31 1
    32   28   31 2
    33   29   31 2
    34   30   31 1
    35    1   32 1
    36    2   33 1
    37    3   34 1
    38    7   35 1
    39    7   36 1
    40    8   37 1
    41    8   38 1
    42    9   39 1
    43    9   40 1
    44   10   41 1
    45   10   42 1
    46   11   43 1
    47   11   44 1
    48   12   45 1
    49   13   46 1
    50   14   47 1
    51   15   48 1
    52   18   49 1
    53   18   50 1
    54   18   51 1
    55   19   52 1
    56   19   53 1
    57   19   54 1
    58   20   55 1
    59   20   56 1
    60   20   57 1
    61   21   58 1
    62   21   59 1
    63   22   60 1
    64   22   61 1
    65   23   62 1
    66   23   63 1
    67   24   64 1
@<TRIPOS>MOLECULE
DKPES_CSD_MMMF_1_28
   64    67     0     0     0
SMALL
USER_CHARGES

@<TRIPOS>ATOM
      1 C1          2.0121   -1.2143    1.2319 C.2       1 <0>        -0.1500
      2 C2          0.3162   -0.9298   -0.4630 C.2       1 <0>        -0.1356
      3 C3          2.9245   -1.9459    1.8863 C.2       1 <0>        -0.2882
      4 C4          1.3270   -1.6661    0.0290 C.2       1 <0>        -0.1382
      5 C5         -0.4261   -1.3440   -1.6772 C.2       1 <0>         0.4946
      6 C6          3.0520   -6.2645    1.2605 C.2       1 <0>         0.4480
      7 C7         -0.0521   -2.6371   -2.3563 C.3       1 <0>         0.0610
      8 C8          2.6249   -5.3856    0.0869 C.3       1 <0>         0.0610
      9 C9          0.6099   -3.6118   -1.3906 C.3       1 <0>         0.0000
     10 C10         4.4784   -3.8939    3.7777 C.3       1 <0>         0.0000
     11 C11         4.7891   -5.2227    4.4865 C.3       1 <0>         0.0000
     12 C12         3.3262   -3.3340    1.4645 C.3       1 <0>         0.1382
     13 C13         2.2273   -3.9675    0.5485 C.3       1 <0>         0.0000
     14 C14         3.5426   -4.2948    2.6428 C.3       1 <0>         0.0000
     15 C15         4.2322   -6.3446    3.5783 C.3       1 <0>         0.0000
     16 C16         1.7910   -2.9885   -0.5996 C.3       1 <0>         0.1382
     17 C17         4.0987   -5.6679    2.1953 C.3       1 <0>         0.0610
     18 C18         2.9581   -2.6968   -1.5724 C.3       1 <0>         0.0000
     19 C19         5.4441   -5.6231    1.4437 C.3       1 <0>         0.0000
     20 C20         4.2804   -8.7995    3.0961 C.3       1 <0>         0.0000
     21 C21         6.3911   -9.2134    5.1576 C.3       1 <0>         0.0000
     22 C22         5.5625   -7.9310    5.0711 C.3       1 <0>         0.0000
     23 C23         6.8204   -9.5060    6.5895 C.3       1 <0>         0.2800
     24 C24         5.0782   -7.6104    3.6426 C.3       1 <0>         0.0000
     25 O1          9.1821   -8.2666    5.1716 O.3       1 <0>        -0.8167
     26 O2         -1.3014   -0.6098   -2.1336 O.2       1 <0>        -0.5700
     27 O3          2.6287   -7.4120    1.3872 O.2       1 <0>        -0.5700
     28 O4          9.7621   -9.5884    7.1560 O.2       1 <0>        -0.8167
     29 O5          9.6959   -7.1395    7.2965 O.2       1 <0>        -0.8167
     30 O6          7.6187   -8.4283    7.0590 O.3       1 <0>        -0.4637
     31 S1          9.2013   -8.3441    6.6315 S.o2      1 <0>         1.6337
     32 H1          1.7714   -0.2251    1.6135 H         1 <0>         0.1500
     33 H2          0.0003    0.0002   -0.0001 H         1 <0>         0.1500
     34 H3          3.4155   -1.5047    2.7491 H         1 <0>         0.1500
     35 H4         -0.9660   -3.0949   -2.7512 H         1 <0>         0.0000
     36 H5          0.6022   -2.4064   -3.2029 H         1 <0>         0.0000
     37 H6          3.4445   -5.3628   -0.6369 H         1 <0>         0.0000
     38 H7          1.7735   -5.8804   -0.3920 H         1 <0>         0.0000
     39 H8         -0.1524   -3.9705   -0.6847 H         1 <0>         0.0000
     40 H9          0.9430   -4.4864   -1.9618 H         1 <0>         0.0000
     41 H10         4.0144   -3.1796    4.4653 H         1 <0>         0.0000
     42 H11         5.3994   -3.4390    3.3963 H         1 <0>         0.0000
     43 H12         5.8694   -5.3151    4.6450 H         1 <0>         0.0000
     44 H13         4.3104   -5.2623    5.4714 H         1 <0>         0.0000
     45 H14         4.2678   -3.2271    0.9157 H         1 <0>         0.0000
     46 H15         1.3362   -4.1106    1.1841 H         1 <0>         0.0000
     47 H16         2.5535   -4.4515    3.1073 H         1 <0>         0.0000
     48 H17         3.2283   -6.6104    3.9404 H         1 <0>         0.0000
     49 H18         3.2850   -3.6286   -2.0152 H         1 <0>         0.0000
     50 H19         3.7697   -2.2435   -1.0182 H         1 <0>         0.0000
     51 H20         2.6102   -2.0207   -2.3426 H         1 <0>         0.0000
     52 H21         6.2005   -5.2008    2.0953 H         1 <0>         0.0000
     53 H22         5.3355   -5.0069    0.5586 H         1 <0>         0.0000
     54 H23         5.7248   -6.6306    1.1587 H         1 <0>         0.0000
     55 H24         3.3864   -8.9844    3.7009 H         1 <0>         0.0000
     56 H25         4.8837   -9.7137    3.0936 H         1 <0>         0.0000
     57 H26         3.9524   -8.6071    2.0692 H         1 <0>         0.0000
     58 H27         5.8230  -10.0703    4.7785 H         1 <0>         0.0000
     59 H28         7.2813   -9.1345    4.5214 H         1 <0>         0.0000
     60 H29         6.1718   -7.0944    5.4372 H         1 <0>         0.0000
     61 H30         4.6997   -8.0091    5.7448 H         1 <0>         0.0000
     62 H31         7.4124  -10.4254    6.6391 H         1 <0>         0.0000
     63 H32         5.9503   -9.6059    7.2462 H         1 <0>         0.0000
     64 H33         5.9579   -7.4756    2.9974 H         1 <0>         0.0000
@<TRIPOS>BOND
     1    1    3 2
     2    1    4 1
     3    2    4 2
     4    2    5 1
     5    3   12 1
     6    4   16 1
     7    5    7 1
     8    5   26 2
     9    6    8 1
    10    6   17 1
    11    6   27 2
    12    7    9 1
    13    8   13 1
    14    9   16 1
    15   10   11 1
    16   10   14 1
    17   11   15 1
    18   12   13 1
    19   12   14 1
    20   13   16 1
    21   14   17 1
    22   15   17 1
    23   15   24 1
    24   16   18 1
    25   17   19 1
    26   20   24 1
    27   21   22 1
    28   21   23 1
    29   22   24 1
    30   23   30 1
    31   25   31 1
    32   28   31 2
    33   29   31 2
    34   30   31 1
    35    1   32 1
    36    2   33 1
    37    3   34 1
    38    7   35 1
    39    7   36 1
    40    8   37 1
    41    8   38 1
    42    9   39 1
    43    9   40 1
    44   10   41 1
    45   10   42 1
    46   11   43 1
    47   11   44 1
    48   12   45 1
    49   13   46 1
    50   14   47 1
    51   15   48 1
    52   18   49 1
    53   18   50 1
    54   18   51 1
    55   19   52 1
    56   19   53 1
    57   19   54 1
    58   20   55 1
    59   20   56 1
    60   20   57 1
    61   21   58 1
    62   21   59 1
    63   22   60 1
    64   22   61 1
    65   23   62 1
    66   23   63 1
    67   24   64 1
@<TRIPOS>MOLECULE
DKPES_CSD_MMMF_1_29
   64    67     0     0     0
SMALL
USER_CHARGES

@<TRIPOS>ATOM
      1 C1          2.0121   -1.2143    1.2319 C.2       1 <0>        -0.1500
      2 C2          0.3162   -0.9298   -0.4630 C.2       1 <0>        -0.1356
      3 C3          2.9245   -1.9459    1.8863 C.2       1 <0>        -0.2882
      4 C4          1.3270   -1.6661    0.0290 C.2       1 <0>        -0.1382
      5 C5         -0.4261   -1.3440   -1.6772 C.2       1 <0>         0.4946
      6 C6          3.0520   -6.2645    1.2605 C.2       1 <0>         0.4480
      7 C7         -0.0521   -2.6371   -2.3563 C.3       1 <0>         0.0610
      8 C8          2.6249   -5.3856    0.0869 C.3       1 <0>         0.0610
      9 C9          0.6099   -3.6118   -1.3906 C.3       1 <0>         0.0000
     10 C10         4.4784   -3.8939    3.7777 C.3       1 <0>         0.0000
     11 C11         4.7891   -5.2227    4.4865 C.3       1 <0>         0.0000
     12 C12         3.3262   -3.3340    1.4645 C.3       1 <0>         0.1382
     13 C13         2.2273   -3.9675    0.5485 C.3       1 <0>         0.0000
     14 C14         3.5426   -4.2948    2.6428 C.3       1 <0>         0.0000
     15 C15         4.2322   -6.3446    3.5783 C.3       1 <0>         0.0000
     16 C16         1.7910   -2.9885   -0.5996 C.3       1 <0>         0.1382
     17 C17         4.0987   -5.6679    2.1953 C.3       1 <0>         0.0610
     18 C18         2.9581   -2.6968   -1.5724 C.3       1 <0>         0.0000
     19 C19         5.4441   -5.6231    1.4437 C.3       1 <0>         0.0000
     20 C20         4.5183   -8.6617    2.6779 C.3       1 <0>         0.0000
     21 C21         6.1805   -7.5138    5.9587 C.3       1 <0>         0.0000
     22 C22         5.1520   -8.2058    5.0632 C.3       1 <0>         0.0000
     23 C23         6.2405   -8.1544    7.3393 C.3       1 <0>         0.2800
     24 C24         5.0782   -7.6104    3.6426 C.3       1 <0>         0.0000
     25 O1          8.8352   -9.2933    7.7448 O.3       1 <0>        -0.8167
     26 O2         -1.3014   -0.6098   -2.1336 O.2       1 <0>        -0.5700
     27 O3          2.6287   -7.4120    1.3872 O.2       1 <0>        -0.5700
     28 O4          9.4277   -7.3701    9.1490 O.2       1 <0>        -0.8167
     29 O5          9.2039   -7.0872    6.7218 O.2       1 <0>        -0.8167
     30 O6          7.2207   -7.4801    8.1163 O.3       1 <0>        -0.4637
     31 S1          8.8087   -7.8409    7.9108 S.o2      1 <0>         1.6337
     32 H1          1.7714   -0.2251    1.6135 H         1 <0>         0.1500
     33 H2          0.0003    0.0002   -0.0001 H         1 <0>         0.1500
     34 H3          3.4155   -1.5047    2.7491 H         1 <0>         0.1500
     35 H4         -0.9660   -3.0949   -2.7512 H         1 <0>         0.0000
     36 H5          0.6022   -2.4064   -3.2029 H         1 <0>         0.0000
     37 H6          3.4445   -5.3628   -0.6369 H         1 <0>         0.0000
     38 H7          1.7735   -5.8804   -0.3920 H         1 <0>         0.0000
     39 H8         -0.1524   -3.9705   -0.6847 H         1 <0>         0.0000
     40 H9          0.9430   -4.4864   -1.9618 H         1 <0>         0.0000
     41 H10         4.0144   -3.1796    4.4653 H         1 <0>         0.0000
     42 H11         5.3994   -3.4390    3.3963 H         1 <0>         0.0000
     43 H12         5.8694   -5.3151    4.6450 H         1 <0>         0.0000
     44 H13         4.3104   -5.2623    5.4714 H         1 <0>         0.0000
     45 H14         4.2678   -3.2271    0.9157 H         1 <0>         0.0000
     46 H15         1.3362   -4.1106    1.1841 H         1 <0>         0.0000
     47 H16         2.5535   -4.4515    3.1073 H         1 <0>         0.0000
     48 H17         3.2283   -6.6104    3.9404 H         1 <0>         0.0000
     49 H18         3.2850   -3.6286   -2.0152 H         1 <0>         0.0000
     50 H19         3.7697   -2.2435   -1.0182 H         1 <0>         0.0000
     51 H20         2.6102   -2.0207   -2.3426 H         1 <0>         0.0000
     52 H21         6.2005   -5.2008    2.0953 H         1 <0>         0.0000
     53 H22         5.3355   -5.0069    0.5586 H         1 <0>         0.0000
     54 H23         5.7248   -6.6306    1.1587 H         1 <0>         0.0000
     55 H24         3.4984   -8.9472    2.9564 H         1 <0>         0.0000
     56 H25         5.1358   -9.5663    2.6762 H         1 <0>         0.0000
     57 H26         4.4862   -8.2713    1.6553 H         1 <0>         0.0000
     58 H27         7.1787   -7.5543    5.5083 H         1 <0>         0.0000
     59 H28         5.9383   -6.4490    6.0634 H         1 <0>         0.0000
     60 H29         4.1645   -8.1244    5.5357 H         1 <0>         0.0000
     61 H30         5.3837   -9.2768    5.0032 H         1 <0>         0.0000
     62 H31         6.5191   -9.2106    7.2675 H         1 <0>         0.0000
     63 H32         5.2759   -8.0737    7.8504 H         1 <0>         0.0000
     64 H33         6.0978   -7.3661    3.3127 H         1 <0>         0.0000
@<TRIPOS>BOND
     1    1    3 2
     2    1    4 1
     3    2    4 2
     4    2    5 1
     5    3   12 1
     6    4   16 1
     7    5    7 1
     8    5   26 2
     9    6    8 1
    10    6   17 1
    11    6   27 2
    12    7    9 1
    13    8   13 1
    14    9   16 1
    15   10   11 1
    16   10   14 1
    17   11   15 1
    18   12   13 1
    19   12   14 1
    20   13   16 1
    21   14   17 1
    22   15   17 1
    23   15   24 1
    24   16   18 1
    25   17   19 1
    26   20   24 1
    27   21   22 1
    28   21   23 1
    29   22   24 1
    30   23   30 1
    31   25   31 1
    32   28   31 2
    33   29   31 2
    34   30   31 1
    35    1   32 1
    36    2   33 1
    37    3   34 1
    38    7   35 1
    39    7   36 1
    40    8   37 1
    41    8   38 1
    42    9   39 1
    43    9   40 1
    44   10   41 1
    45   10   42 1
    46   11   43 1
    47   11   44 1
    48   12   45 1
    49   13   46 1
    50   14   47 1
    51   15   48 1
    52   18   49 1
    53   18   50 1
    54   18   51 1
    55   19   52 1
    56   19   53 1
    57   19   54 1
    58   20   55 1
    59   20   56 1
    60   20   57 1
    61   21   58 1
    62   21   59 1
    63   22   60 1
    64   22   61 1
    65   23   62 1
    66   23   63 1
    67   24   64 1
@<TRIPOS>MOLECULE
DKPES_CSD_MMMF_1_30
   64    67     0     0     0
SMALL
USER_CHARGES

@<TRIPOS>ATOM
      1 C1          2.0121   -1.2143    1.2319 C.2       1 <0>        -0.1500
      2 C2          0.3162   -0.9298   -0.4630 C.2       1 <0>        -0.1356
      3 C3          2.9245   -1.9459    1.8863 C.2       1 <0>        -0.2882
      4 C4          1.3270   -1.6661    0.0290 C.2       1 <0>        -0.1382
      5 C5         -0.4261   -1.3440   -1.6772 C.2       1 <0>         0.4946
      6 C6          3.0520   -6.2645    1.2605 C.2       1 <0>         0.4480
      7 C7         -0.0521   -2.6371   -2.3563 C.3       1 <0>         0.0610
      8 C8          2.6249   -5.3856    0.0869 C.3       1 <0>         0.0610
      9 C9          0.6099   -3.6118   -1.3906 C.3       1 <0>         0.0000
     10 C10         4.4784   -3.8939    3.7777 C.3       1 <0>         0.0000
     11 C11         4.7891   -5.2227    4.4865 C.3       1 <0>         0.0000
     12 C12         3.3262   -3.3340    1.4645 C.3       1 <0>         0.1382
     13 C13         2.2273   -3.9675    0.5485 C.3       1 <0>         0.0000
     14 C14         3.5426   -4.2948    2.6428 C.3       1 <0>         0.0000
     15 C15         4.2322   -6.3446    3.5783 C.3       1 <0>         0.0000
     16 C16         1.7910   -2.9885   -0.5996 C.3       1 <0>         0.1382
     17 C17         4.0987   -5.6679    2.1953 C.3       1 <0>         0.0610
     18 C18         2.9581   -2.6968   -1.5724 C.3       1 <0>         0.0000
     19 C19         5.4441   -5.6231    1.4437 C.3       1 <0>         0.0000
     20 C20         4.2804   -8.7995    3.0961 C.3       1 <0>         0.0000
     21 C21         6.3911   -9.2134    5.1576 C.3       1 <0>         0.0000
     22 C22         5.5625   -7.9310    5.0711 C.3       1 <0>         0.0000
     23 C23         6.8204   -9.5060    6.5895 C.3       1 <0>         0.2800
     24 C24         5.0782   -7.6104    3.6426 C.3       1 <0>         0.0000
     25 O1          9.5997   -9.5196    5.9047 O.3       1 <0>        -0.8167
     26 O2         -1.3014   -0.6098   -2.1336 O.2       1 <0>        -0.5700
     27 O3          2.6287   -7.4120    1.3872 O.2       1 <0>        -0.5700
     28 O4          8.4787  -11.0735    4.3717 O.2       1 <0>        -0.8167
     29 O5          9.6792  -11.9411    6.3281 O.2       1 <0>        -0.8167
     30 O6          7.5708  -10.7125    6.6066 O.3       1 <0>        -0.4637
     31 S1          8.9548  -10.8202    5.7307 S.o2      1 <0>         1.6337
     32 H1          1.7714   -0.2251    1.6135 H         1 <0>         0.1500
     33 H2          0.0003    0.0002   -0.0001 H         1 <0>         0.1500
     34 H3          3.4155   -1.5047    2.7491 H         1 <0>         0.1500
     35 H4         -0.9660   -3.0949   -2.7512 H         1 <0>         0.0000
     36 H5          0.6022   -2.4064   -3.2029 H         1 <0>         0.0000
     37 H6          3.4445   -5.3628   -0.6369 H         1 <0>         0.0000
     38 H7          1.7735   -5.8804   -0.3920 H         1 <0>         0.0000
     39 H8         -0.1524   -3.9705   -0.6847 H         1 <0>         0.0000
     40 H9          0.9430   -4.4864   -1.9618 H         1 <0>         0.0000
     41 H10         4.0144   -3.1796    4.4653 H         1 <0>         0.0000
     42 H11         5.3994   -3.4390    3.3963 H         1 <0>         0.0000
     43 H12         5.8694   -5.3151    4.6450 H         1 <0>         0.0000
     44 H13         4.3104   -5.2623    5.4714 H         1 <0>         0.0000
     45 H14         4.2678   -3.2271    0.9157 H         1 <0>         0.0000
     46 H15         1.3362   -4.1106    1.1841 H         1 <0>         0.0000
     47 H16         2.5535   -4.4515    3.1073 H         1 <0>         0.0000
     48 H17         3.2283   -6.6104    3.9404 H         1 <0>         0.0000
     49 H18         3.2850   -3.6286   -2.0152 H         1 <0>         0.0000
     50 H19         3.7697   -2.2435   -1.0182 H         1 <0>         0.0000
     51 H20         2.6102   -2.0207   -2.3426 H         1 <0>         0.0000
     52 H21         6.2005   -5.2008    2.0953 H         1 <0>         0.0000
     53 H22         5.3355   -5.0069    0.5586 H         1 <0>         0.0000
     54 H23         5.7248   -6.6306    1.1587 H         1 <0>         0.0000
     55 H24         3.3864   -8.9844    3.7009 H         1 <0>         0.0000
     56 H25         4.8837   -9.7137    3.0936 H         1 <0>         0.0000
     57 H26         3.9524   -8.6071    2.0692 H         1 <0>         0.0000
     58 H27         5.8230  -10.0703    4.7785 H         1 <0>         0.0000
     59 H28         7.2813   -9.1345    4.5214 H         1 <0>         0.0000
     60 H29         6.1718   -7.0944    5.4372 H         1 <0>         0.0000
     61 H30         4.6997   -8.0091    5.7448 H         1 <0>         0.0000
     62 H31         5.9490   -9.6285    7.2406 H         1 <0>         0.0000
     63 H32         7.4487   -8.7002    6.9821 H         1 <0>         0.0000
     64 H33         5.9579   -7.4756    2.9974 H         1 <0>         0.0000
@<TRIPOS>BOND
     1    1    3 2
     2    1    4 1
     3    2    4 2
     4    2    5 1
     5    3   12 1
     6    4   16 1
     7    5    7 1
     8    5   26 2
     9    6    8 1
    10    6   17 1
    11    6   27 2
    12    7    9 1
    13    8   13 1
    14    9   16 1
    15   10   11 1
    16   10   14 1
    17   11   15 1
    18   12   13 1
    19   12   14 1
    20   13   16 1
    21   14   17 1
    22   15   17 1
    23   15   24 1
    24   16   18 1
    25   17   19 1
    26   20   24 1
    27   21   22 1
    28   21   23 1
    29   22   24 1
    30   23   30 1
    31   25   31 1
    32   28   31 2
    33   29   31 2
    34   30   31 1
    35    1   32 1
    36    2   33 1
    37    3   34 1
    38    7   35 1
    39    7   36 1
    40    8   37 1
    41    8   38 1
    42    9   39 1
    43    9   40 1
    44   10   41 1
    45   10   42 1
    46   11   43 1
    47   11   44 1
    48   12   45 1
    49   13   46 1
    50   14   47 1
    51   15   48 1
    52   18   49 1
    53   18   50 1
    54   18   51 1
    55   19   52 1
    56   19   53 1
    57   19   54 1
    58   20   55 1
    59   20   56 1
    60   20   57 1
    61   21   58 1
    62   21   59 1
    63   22   60 1
    64   22   61 1
    65   23   62 1
    66   23   63 1
    67   24   64 1
@<TRIPOS>MOLECULE
DKPES_CSD_MMMF_1_31
   64    67     0     0     0
SMALL
USER_CHARGES

@<TRIPOS>ATOM
      1 C1          2.0121   -1.2143    1.2319 C.2       1 <0>        -0.1500
      2 C2          0.3162   -0.9298   -0.4630 C.2       1 <0>        -0.1356
      3 C3          2.9245   -1.9459    1.8863 C.2       1 <0>        -0.2882
      4 C4          1.3270   -1.6661    0.0290 C.2       1 <0>        -0.1382
      5 C5         -0.4261   -1.3440   -1.6772 C.2       1 <0>         0.4946
      6 C6          3.0520   -6.2645    1.2605 C.2       1 <0>         0.4480
      7 C7         -0.0521   -2.6371   -2.3563 C.3       1 <0>         0.0610
      8 C8          2.6249   -5.3856    0.0869 C.3       1 <0>         0.0610
      9 C9          0.6099   -3.6118   -1.3906 C.3       1 <0>         0.0000
     10 C10         4.4784   -3.8939    3.7777 C.3       1 <0>         0.0000
     11 C11         4.7891   -5.2227    4.4865 C.3       1 <0>         0.0000
     12 C12         3.3262   -3.3340    1.4645 C.3       1 <0>         0.1382
     13 C13         2.2273   -3.9675    0.5485 C.3       1 <0>         0.0000
     14 C14         3.5426   -4.2948    2.6428 C.3       1 <0>         0.0000
     15 C15         4.2322   -6.3446    3.5783 C.3       1 <0>         0.0000
     16 C16         1.7910   -2.9885   -0.5996 C.3       1 <0>         0.1382
     17 C17         4.0987   -5.6679    2.1953 C.3       1 <0>         0.0610
     18 C18         2.9581   -2.6968   -1.5724 C.3       1 <0>         0.0000
     19 C19         5.4441   -5.6231    1.4437 C.3       1 <0>         0.0000
     20 C20         4.5183   -8.6617    2.6779 C.3       1 <0>         0.0000
     21 C21         6.1805   -7.5138    5.9587 C.3       1 <0>         0.0000
     22 C22         5.1520   -8.2058    5.0632 C.3       1 <0>         0.0000
     23 C23         6.2405   -8.1544    7.3393 C.3       1 <0>         0.2800
     24 C24         5.0782   -7.6104    3.6426 C.3       1 <0>         0.0000
     25 O1          8.9091   -9.0538    7.8528 O.3       1 <0>        -0.8167
     26 O2         -1.3014   -0.6098   -2.1336 O.2       1 <0>        -0.5700
     27 O3          2.6287   -7.4120    1.3872 O.2       1 <0>        -0.5700
     28 O4          8.3758   -9.6823    5.5415 O.2       1 <0>        -0.8167
     29 O5          8.2204  -11.3561    7.3291 O.2       1 <0>        -0.8167
     30 O6          6.5899   -9.5242    7.1953 O.3       1 <0>        -0.4637
     31 S1          8.1605   -9.9415    6.9643 S.o2      1 <0>         1.6337
     32 H1          1.7714   -0.2251    1.6135 H         1 <0>         0.1500
     33 H2          0.0003    0.0002   -0.0001 H         1 <0>         0.1500
     34 H3          3.4155   -1.5047    2.7491 H         1 <0>         0.1500
     35 H4         -0.9660   -3.0949   -2.7512 H         1 <0>         0.0000
     36 H5          0.6022   -2.4064   -3.2029 H         1 <0>         0.0000
     37 H6          3.4445   -5.3628   -0.6369 H         1 <0>         0.0000
     38 H7          1.7735   -5.8804   -0.3920 H         1 <0>         0.0000
     39 H8         -0.1524   -3.9705   -0.6847 H         1 <0>         0.0000
     40 H9          0.9430   -4.4864   -1.9618 H         1 <0>         0.0000
     41 H10         4.0144   -3.1796    4.4653 H         1 <0>         0.0000
     42 H11         5.3994   -3.4390    3.3963 H         1 <0>         0.0000
     43 H12         5.8694   -5.3151    4.6450 H         1 <0>         0.0000
     44 H13         4.3104   -5.2623    5.4714 H         1 <0>         0.0000
     45 H14         4.2678   -3.2271    0.9157 H         1 <0>         0.0000
     46 H15         1.3362   -4.1106    1.1841 H         1 <0>         0.0000
     47 H16         2.5535   -4.4515    3.1073 H         1 <0>         0.0000
     48 H17         3.2283   -6.6104    3.9404 H         1 <0>         0.0000
     49 H18         3.2850   -3.6286   -2.0152 H         1 <0>         0.0000
     50 H19         3.7697   -2.2435   -1.0182 H         1 <0>         0.0000
     51 H20         2.6102   -2.0207   -2.3426 H         1 <0>         0.0000
     52 H21         6.2005   -5.2008    2.0953 H         1 <0>         0.0000
     53 H22         5.3355   -5.0069    0.5586 H         1 <0>         0.0000
     54 H23         5.7248   -6.6306    1.1587 H         1 <0>         0.0000
     55 H24         3.4984   -8.9472    2.9564 H         1 <0>         0.0000
     56 H25         5.1358   -9.5663    2.6762 H         1 <0>         0.0000
     57 H26         4.4862   -8.2713    1.6553 H         1 <0>         0.0000
     58 H27         7.1787   -7.5543    5.5083 H         1 <0>         0.0000
     59 H28         5.9383   -6.4490    6.0634 H         1 <0>         0.0000
     60 H29         4.1645   -8.1244    5.5357 H         1 <0>         0.0000
     61 H30         5.3837   -9.2768    5.0032 H         1 <0>         0.0000
     62 H31         5.2690   -8.0935    7.8401 H         1 <0>         0.0000
     63 H32         6.9954   -7.6670    7.9644 H         1 <0>         0.0000
     64 H33         6.0978   -7.3661    3.3127 H         1 <0>         0.0000
@<TRIPOS>BOND
     1    1    3 2
     2    1    4 1
     3    2    4 2
     4    2    5 1
     5    3   12 1
     6    4   16 1
     7    5    7 1
     8    5   26 2
     9    6    8 1
    10    6   17 1
    11    6   27 2
    12    7    9 1
    13    8   13 1
    14    9   16 1
    15   10   11 1
    16   10   14 1
    17   11   15 1
    18   12   13 1
    19   12   14 1
    20   13   16 1
    21   14   17 1
    22   15   17 1
    23   15   24 1
    24   16   18 1
    25   17   19 1
    26   20   24 1
    27   21   22 1
    28   21   23 1
    29   22   24 1
    30   23   30 1
    31   25   31 1
    32   28   31 2
    33   29   31 2
    34   30   31 1
    35    1   32 1
    36    2   33 1
    37    3   34 1
    38    7   35 1
    39    7   36 1
    40    8   37 1
    41    8   38 1
    42    9   39 1
    43    9   40 1
    44   10   41 1
    45   10   42 1
    46   11   43 1
    47   11   44 1
    48   12   45 1
    49   13   46 1
    50   14   47 1
    51   15   48 1
    52   18   49 1
    53   18   50 1
    54   18   51 1
    55   19   52 1
    56   19   53 1
    57   19   54 1
    58   20   55 1
    59   20   56 1
    60   20   57 1
    61   21   58 1
    62   21   59 1
    63   22   60 1
    64   22   61 1
    65   23   62 1
    66   23   63 1
    67   24   64 1
@<TRIPOS>MOLECULE
DKPES_CSD_MMMF_1_32
   64    67     0     0     0
SMALL
USER_CHARGES

@<TRIPOS>ATOM
      1 C1          2.0121   -1.2143    1.2319 C.2       1 <0>        -0.1500
      2 C2          0.3162   -0.9298   -0.4630 C.2       1 <0>        -0.1356
      3 C3          2.9245   -1.9459    1.8863 C.2       1 <0>        -0.2882
      4 C4          1.3270   -1.6661    0.0290 C.2       1 <0>        -0.1382
      5 C5         -0.4261   -1.3440   -1.6772 C.2       1 <0>         0.4946
      6 C6          3.0520   -6.2645    1.2605 C.2       1 <0>         0.4480
      7 C7         -0.0521   -2.6371   -2.3563 C.3       1 <0>         0.0610
      8 C8          2.6249   -5.3856    0.0869 C.3       1 <0>         0.0610
      9 C9          0.6099   -3.6118   -1.3906 C.3       1 <0>         0.0000
     10 C10         4.4784   -3.8939    3.7777 C.3       1 <0>         0.0000
     11 C11         4.7891   -5.2227    4.4865 C.3       1 <0>         0.0000
     12 C12         3.3262   -3.3340    1.4645 C.3       1 <0>         0.1382
     13 C13         2.2273   -3.9675    0.5485 C.3       1 <0>         0.0000
     14 C14         3.5426   -4.2948    2.6428 C.3       1 <0>         0.0000
     15 C15         4.2322   -6.3446    3.5783 C.3       1 <0>         0.0000
     16 C16         1.7910   -2.9885   -0.5996 C.3       1 <0>         0.1382
     17 C17         4.0987   -5.6679    2.1953 C.3       1 <0>         0.0610
     18 C18         2.9581   -2.6968   -1.5724 C.3       1 <0>         0.0000
     19 C19         5.4441   -5.6231    1.4437 C.3       1 <0>         0.0000
     20 C20         4.2804   -8.7995    3.0961 C.3       1 <0>         0.0000
     21 C21         6.7528   -8.8904    5.1075 C.3       1 <0>         0.0000
     22 C22         5.5625   -7.9310    5.0711 C.3       1 <0>         0.0000
     23 C23         7.9642   -8.3055    4.3930 C.3       1 <0>         0.2800
     24 C24         5.0782   -7.6104    3.6426 C.3       1 <0>         0.0000
     25 O1         10.0891   -7.9365    6.2752 O.3       1 <0>        -0.8167
     26 O2         -1.3014   -0.6098   -2.1336 O.2       1 <0>        -0.5700
     27 O3          2.6287   -7.4120    1.3872 O.2       1 <0>        -0.5700
     28 O4         11.1690   -9.9626    5.4089 O.2       1 <0>        -0.8167
     29 O5          9.1235  -10.1479    6.7517 O.2       1 <0>        -0.8167
     30 O6          9.0374   -9.2334    4.4739 O.3       1 <0>        -0.4637
     31 S1          9.9285   -9.3260    5.8493 S.o2      1 <0>         1.6337
     32 H1          1.7714   -0.2251    1.6135 H         1 <0>         0.1500
     33 H2          0.0003    0.0002   -0.0001 H         1 <0>         0.1500
     34 H3          3.4155   -1.5047    2.7491 H         1 <0>         0.1500
     35 H4         -0.9660   -3.0949   -2.7512 H         1 <0>         0.0000
     36 H5          0.6022   -2.4064   -3.2029 H         1 <0>         0.0000
     37 H6          3.4445   -5.3628   -0.6369 H         1 <0>         0.0000
     38 H7          1.7735   -5.8804   -0.3920 H         1 <0>         0.0000
     39 H8         -0.1524   -3.9705   -0.6847 H         1 <0>         0.0000
     40 H9          0.9430   -4.4864   -1.9618 H         1 <0>         0.0000
     41 H10         4.0144   -3.1796    4.4653 H         1 <0>         0.0000
     42 H11         5.3994   -3.4390    3.3963 H         1 <0>         0.0000
     43 H12         5.8694   -5.3151    4.6450 H         1 <0>         0.0000
     44 H13         4.3104   -5.2623    5.4714 H         1 <0>         0.0000
     45 H14         4.2678   -3.2271    0.9157 H         1 <0>         0.0000
     46 H15         1.3362   -4.1106    1.1841 H         1 <0>         0.0000
     47 H16         2.5535   -4.4515    3.1073 H         1 <0>         0.0000
     48 H17         3.2283   -6.6104    3.9404 H         1 <0>         0.0000
     49 H18         3.2850   -3.6286   -2.0152 H         1 <0>         0.0000
     50 H19         3.7697   -2.2435   -1.0182 H         1 <0>         0.0000
     51 H20         2.6102   -2.0207   -2.3426 H         1 <0>         0.0000
     52 H21         6.2005   -5.2008    2.0953 H         1 <0>         0.0000
     53 H22         5.3355   -5.0069    0.5586 H         1 <0>         0.0000
     54 H23         5.7248   -6.6306    1.1587 H         1 <0>         0.0000
     55 H24         3.3864   -8.9844    3.7009 H         1 <0>         0.0000
     56 H25         4.8837   -9.7137    3.0936 H         1 <0>         0.0000
     57 H26         3.9524   -8.6071    2.0692 H         1 <0>         0.0000
     58 H27         7.0328   -9.1244    6.1408 H         1 <0>         0.0000
     59 H28         6.4845   -9.8470    4.6422 H         1 <0>         0.0000
     60 H29         5.8507   -6.9957    5.5683 H         1 <0>         0.0000
     61 H30         4.7356   -8.3548    5.6550 H         1 <0>         0.0000
     62 H31         8.2785   -7.3677    4.8620 H         1 <0>         0.0000
     63 H32         7.7438   -8.1201    3.3369 H         1 <0>         0.0000
     64 H33         5.9579   -7.4756    2.9974 H         1 <0>         0.0000
@<TRIPOS>BOND
     1    1    3 2
     2    1    4 1
     3    2    4 2
     4    2    5 1
     5    3   12 1
     6    4   16 1
     7    5    7 1
     8    5   26 2
     9    6    8 1
    10    6   17 1
    11    6   27 2
    12    7    9 1
    13    8   13 1
    14    9   16 1
    15   10   11 1
    16   10   14 1
    17   11   15 1
    18   12   13 1
    19   12   14 1
    20   13   16 1
    21   14   17 1
    22   15   17 1
    23   15   24 1
    24   16   18 1
    25   17   19 1
    26   20   24 1
    27   21   22 1
    28   21   23 1
    29   22   24 1
    30   23   30 1
    31   25   31 1
    32   28   31 2
    33   29   31 2
    34   30   31 1
    35    1   32 1
    36    2   33 1
    37    3   34 1
    38    7   35 1
    39    7   36 1
    40    8   37 1
    41    8   38 1
    42    9   39 1
    43    9   40 1
    44   10   41 1
    45   10   42 1
    46   11   43 1
    47   11   44 1
    48   12   45 1
    49   13   46 1
    50   14   47 1
    51   15   48 1
    52   18   49 1
    53   18   50 1
    54   18   51 1
    55   19   52 1
    56   19   53 1
    57   19   54 1
    58   20   55 1
    59   20   56 1
    60   20   57 1
    61   21   58 1
    62   21   59 1
    63   22   60 1
    64   22   61 1
    65   23   62 1
    66   23   63 1
    67   24   64 1
@<TRIPOS>MOLECULE
ZINC04082559_14
   58    61     0     0     0
SMALL
USER_CHARGES

mmff94s_NoEstat = 99.38
@<TRIPOS>ATOM
      1 C1          0.5180   -1.0677   -0.5043 C.2       1 <0>        -0.1356
      2 C2          1.6305   -1.7183   -0.1245 C.2       1 <0>        -0.2764
      3 C3         -0.4179   -1.6510   -1.4924 C.2       1 <0>         0.4946
      4 C4          5.6951   -7.2905    3.6868 C.2       1 <0>         0.4480
      5 C5          2.6157   -1.0277    0.7888 C.3       1 <0>         0.1382
      6 C6         -0.0239   -2.9353   -2.1719 C.3       1 <0>         0.0610
      7 C7          2.9957   -1.8944    1.9825 C.3       1 <0>         0.0000
      8 C8          0.7483   -3.8271   -1.2123 C.3       1 <0>         0.0000
      9 C9          4.9077   -3.6317    3.7390 C.3       1 <0>         0.0000
     10 C10         2.8934   -5.4367    0.3026 C.3       1 <0>         0.0000
     11 C11         5.3762   -4.8961    4.4882 C.3       1 <0>         0.0000
     12 C12         3.3562   -6.2542    1.5222 C.3       1 <0>         0.0000
     13 C13         3.5292   -3.2597    1.5290 C.3       1 <0>         0.0000
     14 C14         2.4585   -3.9895    0.6595 C.3       1 <0>         0.0000
     15 C15         3.8870   -4.1466    2.7278 C.3       1 <0>         0.0000
     16 C16         1.9937   -3.1364   -0.5834 C.3       1 <0>         0.1382
     17 C17         4.7859   -6.0983    3.7176 C.3       1 <0>         0.3410
     18 C18         4.4529   -5.5253    2.3157 C.3       1 <0>         0.0000
     19 C19         3.1007   -3.0278   -1.6565 C.3       1 <0>         0.0000
     20 C20         5.7426   -5.4302    1.4542 C.3       1 <0>         0.0000
     21 C21         6.6180   -7.4607    4.8749 C.3       1 <0>         0.3410
     22 O1          9.9286   -9.3909    4.8606 O.3       1 <0>        -1.0333
     23 O2          7.8371   -9.9008    6.2438 O.3       1 <0>        -1.0333
     24 O3         -1.4488   -1.0503   -1.7887 O.2       1 <0>        -0.5700
     25 O4          5.6825   -8.0796    2.7433 O.2       1 <0>        -0.5700
     26 O5          9.1168   -7.7086    6.6093 O.2       1 <0>        -1.0333
     27 O6          3.6076   -6.5494    4.3785 O.3       1 <0>        -0.6800
     28 O7          7.8176   -8.0963    4.4873 O.3       1 <0>        -0.5512
     29 P1          8.7455   -8.8312    5.6447 P.3       1 <0>         1.3712
     30 H1          0.2889   -0.0686   -0.1487 H         1 <0>         0.1500
     31 H2          3.5168   -0.7778    0.2154 H         1 <0>         0.0000
     32 H3          2.2153   -0.0763    1.1603 H         1 <0>         0.0000
     33 H4         -0.9352   -3.4543   -2.4893 H         1 <0>         0.0000
     34 H5          0.5605   -2.6961   -3.0658 H         1 <0>         0.0000
     35 H6          3.7560   -1.3673    2.5705 H         1 <0>         0.0000
     36 H7          2.1237   -2.0270    2.6358 H         1 <0>         0.0000
     37 H8          0.0612   -4.1394   -0.4132 H         1 <0>         0.0000
     38 H9          1.0389   -4.7400   -1.7456 H         1 <0>         0.0000
     39 H10         4.4679   -2.9048    4.4296 H         1 <0>         0.0000
     40 H11         5.7551   -3.1449    3.2434 H         1 <0>         0.0000
     41 H12         3.6943   -5.4219   -0.4428 H         1 <0>         0.0000
     42 H13         2.0572   -5.9754   -0.1566 H         1 <0>         0.0000
     43 H14         6.4719   -4.9176    4.5119 H         1 <0>         0.0000
     44 H15         5.0235   -4.8672    5.5254 H         1 <0>         0.0000
     45 H16         2.4799   -6.4414    2.1552 H         1 <0>         0.0000
     46 H17         3.7124   -7.2365    1.1900 H         1 <0>         0.0000
     47 H18         4.4301   -3.0789    0.9332 H         1 <0>         0.0000
     48 H19         1.5731   -4.1010    1.3071 H         1 <0>         0.0000
     49 H20         2.9518   -4.3040    3.2900 H         1 <0>         0.0000
     50 H21         3.3660   -4.0235   -1.9889 H         1 <0>         0.0000
     51 H22         3.9639   -2.5396   -1.2220 H         1 <0>         0.0000
     52 H23         2.7260   -2.4463   -2.4895 H         1 <0>         0.0000
     53 H24         6.5001   -4.9162    2.0274 H         1 <0>         0.0000
     54 H25         5.5129   -4.8799    0.5538 H         1 <0>         0.0000
     55 H26         6.0673   -6.4314    1.2122 H         1 <0>         0.0000
     56 H27         6.1249   -8.0627    5.6429 H         1 <0>         0.0000
     57 H28         6.8636   -6.4752    5.2792 H         1 <0>         0.0000
     58 H29         3.2544   -7.2795    3.8466 H         1 <0>         0.4000
@<TRIPOS>BOND
     1    1    2 2
     2    1    3 1
     3    2    5 1
     4    2   16 1
     5    3    6 1
     6    3   24 2
     7    4   17 1
     8    4   21 1
     9    4   25 2
    10    5    7 1
    11    6    8 1
    12    7   13 1
    13    8   16 1
    14    9   11 1
    15    9   15 1
    16   10   12 1
    17   10   14 1
    18   11   17 1
    19   12   18 1
    20   13   14 1
    21   13   15 1
    22   14   16 1
    23   15   18 1
    24   16   19 1
    25   17   18 1
    26   17   27 1
    27   18   20 1
    28   21   28 1
    29   22   29 1
    30   23   29 1
    31   26   29 2
    32   28   29 1
    33    1   30 1
    34    5   31 1
    35    5   32 1
    36    6   33 1
    37    6   34 1
    38    7   35 1
    39    7   36 1
    40    8   37 1
    41    8   38 1
    42    9   39 1
    43    9   40 1
    44   10   41 1
    45   10   42 1
    46   11   43 1
    47   11   44 1
    48   12   45 1
    49   12   46 1
    50   13   47 1
    51   14   48 1
    52   15   49 1
    53   19   50 1
    54   19   51 1
    55   19   52 1
    56   20   53 1
    57   20   54 1
    58   20   55 1
    59   21   56 1
    60   21   57 1
    61   27   58 1
@<TRIPOS>MOLECULE
ZINC04025723_10
   59    62     0     0     0
SMALL
USER_CHARGES

mmff94s_NoEstat = 79.79
@<TRIPOS>ATOM
      1 C1          0.4287   -1.0100   -0.5382 C.2       1 <0>        -0.1356
      2 C2          1.5145   -1.6476   -0.0694 C.2       1 <0>        -0.2764
      3 C3         -0.3260   -1.5257   -1.7031 C.2       1 <0>         0.4946
      4 C4          8.5589  -10.0358    5.1633 C.2       1 <0>         0.9060
      5 C5          5.0522   -8.3486    4.5787 C.2       1 <0>         0.6590
      6 C6          2.3221   -1.0154    1.0398 C.3       1 <0>         0.1382
      7 C7          0.2338   -2.7107   -2.4440 C.3       1 <0>         0.0610
      8 C8          2.5823   -1.9862    2.1842 C.3       1 <0>         0.0000
      9 C9          0.9171   -3.6650   -1.4774 C.3       1 <0>         0.0000
     10 C10         4.3072   -3.8296    4.0314 C.3       1 <0>         0.0000
     11 C11         2.9221   -5.3327    0.1617 C.3       1 <0>         0.0000
     12 C12         4.7389   -5.1547    4.6854 C.3       1 <0>         0.0000
     13 C13         3.2699   -6.2550    1.3442 C.3       1 <0>         0.0000
     14 C14         3.2514   -3.2709    1.6800 C.3       1 <0>         0.0000
     15 C15         2.3574   -3.9512    0.5955 C.3       1 <0>         0.0000
     16 C16         3.4840   -4.2651    2.8218 C.3       1 <0>         0.0000
     17 C17         4.3216   -6.2726    3.7100 C.3       1 <0>         0.2800
     18 C18         2.0203   -2.9913   -0.6101 C.3       1 <0>         0.1382
     19 C19         4.1871   -5.5537    2.3539 C.3       1 <0>         0.0000
     20 C20         3.2571   -2.7194   -1.4961 C.3       1 <0>         0.0000
     21 C21         5.5841   -5.3345    1.7193 C.3       1 <0>         0.0000
     22 C22         7.3760   -9.0662    5.2768 C.3       1 <0>        -0.1060
     23 C23         6.1478   -9.3823    4.4319 C.3       1 <0>         0.0610
     24 O1          9.5670   -9.7839    5.8781 O.co2     1 <0>        -0.9000
     25 O2         -1.3406   -0.9441   -2.0817 O.2       1 <0>        -0.5700
     26 O3          8.3682  -10.9890    4.3536 O.co2     1 <0>        -0.9000
     27 O4          4.1257   -8.4091    5.3752 O.2       1 <0>        -0.5700
     28 O5          5.2644   -7.3267    3.6857 O.3       1 <0>        -0.4300
     29 H1          0.0939   -0.0661   -0.1212 H         1 <0>         0.1500
     30 H2          3.2781   -0.6673    0.6296 H         1 <0>         0.0000
     31 H3          1.8197   -0.1269    1.4417 H         1 <0>         0.0000
     32 H4         -0.5924   -3.2327   -2.9398 H         1 <0>         0.0000
     33 H5          0.9211   -2.3510   -3.2161 H         1 <0>         0.0000
     34 H6          3.2218   -1.4927    2.9252 H         1 <0>         0.0000
     35 H7          1.6370   -2.2250    2.6887 H         1 <0>         0.0000
     36 H8          0.1457   -4.0915   -0.8208 H         1 <0>         0.0000
     37 H9          1.3324   -4.5017   -2.0518 H         1 <0>         0.0000
     38 H10         3.7241   -3.2157    4.7253 H         1 <0>         0.0000
     39 H11         5.1857   -3.2478    3.7312 H         1 <0>         0.0000
     40 H12         3.8132   -5.2002   -0.4595 H         1 <0>         0.0000
     41 H13         2.1888   -5.8570   -0.4611 H         1 <0>         0.0000
     42 H14         5.8171   -5.1589    4.8814 H         1 <0>         0.0000
     43 H15         4.2394   -5.2938    5.6508 H         1 <0>         0.0000
     44 H16         2.3358   -6.5607    1.8332 H         1 <0>         0.0000
     45 H17         3.7368   -7.1740    0.9702 H         1 <0>         0.0000
     46 H18         4.2167   -2.9928    1.2430 H         1 <0>         0.0000
     47 H19         1.3988   -4.1708    1.0938 H         1 <0>         0.0000
     48 H20         2.4890   -4.5351    3.2145 H         1 <0>         0.0000
     49 H21         3.3562   -6.6901    4.0227 H         1 <0>         0.0000
     50 H22         3.6243   -3.6609   -1.8846 H         1 <0>         0.0000
     51 H23         4.0214   -2.2431   -0.8951 H         1 <0>         0.0000
     52 H24         2.9681   -2.0691   -2.3121 H         1 <0>         0.0000
     53 H25         6.2190   -4.8400    2.4414 H         1 <0>         0.0000
     54 H26         5.4712   -4.7194    0.8372 H         1 <0>         0.0000
     55 H27         5.9988   -6.2972    1.4536 H         1 <0>         0.0000
     56 H28         7.7541   -8.0795    4.9805 H         1 <0>         0.0000
     57 H29         7.0927   -8.9961    6.3346 H         1 <0>         0.0000
     58 H30         5.7421  -10.3636    4.7016 H         1 <0>         0.0000
     59 H31         6.4399   -9.4027    3.3758 H         1 <0>         0.0000
@<TRIPOS>BOND
     1    1    2 2
     2    1    3 1
     3    2    6 1
     4    2   18 1
     5    3    7 1
     6    3   25 2
     7    4   22 1
     8    4   24 1
     9    4   26 2
    10    5   23 1
    11    5   27 2
    12    5   28 1
    13    6    8 1
    14    7    9 1
    15    8   14 1
    16    9   18 1
    17   10   12 1
    18   10   16 1
    19   11   13 1
    20   11   15 1
    21   12   17 1
    22   13   19 1
    23   14   15 1
    24   14   16 1
    25   15   18 1
    26   16   19 1
    27   17   19 1
    28   17   28 1
    29   18   20 1
    30   19   21 1
    31   22   23 1
    32    1   29 1
    33    6   30 1
    34    6   31 1
    35    7   32 1
    36    7   33 1
    37    8   34 1
    38    8   35 1
    39    9   36 1
    40    9   37 1
    41   10   38 1
    42   10   39 1
    43   11   40 1
    44   11   41 1
    45   12   42 1
    46   12   43 1
    47   13   44 1
    48   13   45 1
    49   14   46 1
    50   15   47 1
    51   16   48 1
    52   17   49 1
    53   20   50 1
    54   20   51 1
    55   20   52 1
    56   21   53 1
    57   21   54 1
    58   21   55 1
    59   22   56 1
    60   22   57 1
    61   23   58 1
    62   23   59 1
@<TRIPOS>MOLECULE
ZINC13470739_25
   62    66     0     0     0
SMALL
USER_CHARGES

mmff94s_NoEstat = 82.66
@<TRIPOS>ATOM
      1 C1          1.3060   -3.2007   -1.7249 C.ar      1 <0>        -0.1500
      2 C2          0.2854   -2.4215   -2.2694 C.ar      1 <0>        -0.1500
      3 C3          0.0337   -1.2762   -0.1599 C.ar      1 <0>        -0.1500
      4 C4          4.0342  -10.6686    7.1243 C.2       1 <0>        -0.3016
      5 C5          4.5556   -9.4931    6.6417 C.2       1 <0>        -0.0860
      6 C6          1.7051   -3.0229   -0.3914 C.ar      1 <0>        -0.1435
      7 C7          1.0690   -2.0432    0.3887 C.ar      1 <0>        -0.1435
      8 C8         -0.3532   -1.4634   -1.4861 C.ar      1 <0>         0.0825
      9 C9          5.2858   -8.9622    7.7219 C.2       1 <0>         0.1078
     10 C10         4.4882   -6.2941    3.3845 C.2       1 <0>         0.3280
     11 C11         4.3580   -8.9595    5.2833 C.2       1 <0>         0.4760
     12 C12         1.5099   -1.8374    1.8096 C.3       1 <0>         0.1435
     13 C13         4.7639   -5.2753    4.4637 C.3       1 <0>         0.0610
     14 C14         3.0302   -1.9146    1.8680 C.3       1 <0>         0.0000
     15 C15         4.6691   -3.9516    3.6981 C.3       1 <0>         0.0000
     16 C16         2.1023   -5.2743    0.5992 C.3       1 <0>         0.0000
     17 C17         3.0465   -6.3083    1.2368 C.3       1 <0>         0.0000
     18 C18         2.7679   -3.9245    0.2144 C.3       1 <0>         0.1435
     19 C19         3.5773   -3.2752    1.3962 C.3       1 <0>         0.0000
     20 C20         3.7097   -4.2790    2.5515 C.3       1 <0>         0.0000
     21 C21         4.1744   -5.6642    2.0447 C.3       1 <0>         0.0610
     22 C22         6.0549   -7.7060    7.7621 C.3       1 <0>         0.1810
     23 C23         5.4868   -5.6644    1.2377 C.3       1 <0>         0.0000
     24 C24         5.3461  -12.7918    9.4978 C.3       1 <0>         0.0000
     25 C25         4.1753  -11.8377    9.3364 C.3       1 <0>         0.2556
     26 N1          5.2350   -9.7368    8.8088 N.2       1 <0>        -0.7068
     27 N2          4.5415   -7.5683    3.5804 N.2       1 <0>        -0.4500
     28 N3          4.8820   -7.8408    4.9000 N.2       1 <0>        -0.4500
     29 N4          4.4666  -10.7663    8.4141 N.pl3     1 <0>         0.3140
     30 O1         -1.3466   -0.6999   -2.0204 O.3       1 <0>        -0.5325
     31 H1          1.7802   -3.9269   -2.3683 H         1 <0>         0.1500
     32 H2         -0.0039   -2.5610   -3.3067 H         1 <0>         0.1500
     33 H3         -0.4695   -0.5265    0.4408 H         1 <0>         0.1500
     34 H4          3.4079  -11.4256    6.6723 H         1 <0>         0.1500
     35 H5          3.7344   -9.5629    4.5970 H         1 <0>         0.0600
     36 H6          1.2010   -0.8640    2.1586 H         1 <0>         0.0000
     37 H7          1.0704   -2.6017    2.4303 H         1 <0>         0.0000
     38 H8          3.9888   -5.3522    5.2329 H         1 <0>         0.0000
     39 H9          5.7502   -5.4255    4.9101 H         1 <0>         0.0000
     40 H10         3.4574   -1.1274    1.2291 H         1 <0>         0.0000
     41 H11         3.3737   -1.6951    2.8873 H         1 <0>         0.0000
     42 H12         4.2948   -3.1483    4.3439 H         1 <0>         0.0000
     43 H13         5.6520   -3.6398    3.3213 H         1 <0>         0.0000
     44 H14         1.6818   -5.7107   -0.3173 H         1 <0>         0.0000
     45 H15         1.2353   -5.1403    1.2542 H         1 <0>         0.0000
     46 H16         2.4607   -6.9941    1.8787 H         1 <0>         0.0000
     47 H17         3.4681   -6.9564    0.4454 H         1 <0>         0.0000
     48 H18         3.4450   -4.1349   -0.6051 H         1 <0>         0.0000
     49 H19         4.6122   -3.0693    1.0249 H         1 <0>         0.0000
     50 H20         2.7298   -4.3942    3.0092 H         1 <0>         0.0000
     51 H21         5.4255   -6.8623    8.0923 H         1 <0>         0.0000
     52 H22         6.9168   -7.7675    8.4496 H         1 <0>         0.0000
     53 H23         6.4738   -7.4426    6.7746 H         1 <0>         0.0000
     54 H24         5.3063   -5.2194    0.2657 H         1 <0>         0.0000
     55 H25         5.8290   -6.6860    1.1162 H         1 <0>         0.0000
     56 H26         6.2331   -5.0881    1.7730 H         1 <0>         0.0000
     57 H27         5.6225  -13.2446    8.5396 H         1 <0>         0.0000
     58 H28         5.0871  -13.5960   10.1932 H         1 <0>         0.0000
     59 H29         6.2280  -12.2732    9.8884 H         1 <0>         0.0000
     60 H30         3.9061  -11.3898   10.2997 H         1 <0>         0.0000
     61 H31         3.2914  -12.3698    8.9670 H         1 <0>         0.0000
     62 H32        -1.6919   -0.0820   -1.3560 H         1 <0>         0.4500
@<TRIPOS>BOND
     1    1    2 ar
     2    1    6 ar
     3    2    8 ar
     4    3    7 ar
     5    3    8 ar
     6    4    5 2
     7    4   29 1
     8    5    9 1
     9    5   11 1
    10    6    7 ar
    11    6   18 1
    12    7   12 1
    13    8   30 1
    14    9   22 1
    15    9   26 2
    16   10   13 1
    17   10   21 1
    18   10   27 2
    19   11   28 2
    20   12   14 1
    21   13   15 1
    22   14   19 1
    23   15   20 1
    24   16   17 1
    25   16   18 1
    26   17   21 1
    27   18   19 1
    28   19   20 1
    29   20   21 1
    30   21   23 1
    31   24   25 1
    32   25   29 1
    33   26   29 1
    34   27   28 1
    35    1   31 1
    36    2   32 1
    37    3   33 1
    38    4   34 1
    39   11   35 1
    40   12   36 1
    41   12   37 1
    42   13   38 1
    43   13   39 1
    44   14   40 1
    45   14   41 1
    46   15   42 1
    47   15   43 1
    48   16   44 1
    49   16   45 1
    50   17   46 1
    51   17   47 1
    52   18   48 1
    53   19   49 1
    54   20   50 1
    55   22   51 1
    56   22   52 1
    57   22   53 1
    58   23   54 1
    59   23   55 1
    60   23   56 1
    61   24   57 1
    62   24   58 1
    63   24   59 1
    64   25   60 1
    65   25   61 1
    66   30   62 1
@<TRIPOS>MOLECULE
ZINC05276019_4
   62    65     0     0     0
SMALL
USER_CHARGES

mmff94s_NoEstat = 104.98
@<TRIPOS>ATOM
      1 C1         -0.4421   -1.3443   -1.7670 C.2       1 <0>         0.4480
      2 C2          2.9420   -1.9187    1.8333 C.2       1 <0>         0.4480
      3 C3          2.9947   -6.2443    1.3733 C.2       1 <0>         0.4480
      4 C4          7.2396   -7.9910    6.8890 C.2       1 <0>         0.9060
      5 C5         -0.2377   -2.7445   -2.2939 C.3       1 <0>         0.0610
      6 C6          0.7275   -0.6988   -1.0615 C.3       1 <0>         0.0610
      7 C7          2.4622   -0.9922    0.7388 C.3       1 <0>         0.0610
      8 C8          2.4229   -5.4292    0.2212 C.3       1 <0>         0.0610
      9 C9          0.4107   -3.6487   -1.2483 C.3       1 <0>         0.0000
     10 C10         4.8821   -3.8179    3.4838 C.3       1 <0>         0.0000
     11 C11         5.2993   -5.1242    4.1795 C.3       1 <0>         0.0000
     12 C12         3.3671   -3.3149    1.3822 C.3       1 <0>         0.0610
     13 C13         1.3076   -1.6527   -0.0145 C.3       1 <0>         0.0000
     14 C14         2.1703   -3.9540    0.6045 C.3       1 <0>         0.0000
     15 C15         3.7510   -4.2370    2.5465 C.3       1 <0>         0.0000
     16 C16         4.5659   -6.2644    3.4392 C.3       1 <0>         0.0000
     17 C17         4.2012   -5.6389    2.0750 C.3       1 <0>         0.0610
     18 C18         1.6936   -3.0517   -0.6006 C.3       1 <0>         0.0000
     19 C19         5.3928   -5.6532    1.0964 C.3       1 <0>         0.0000
     20 C20         2.7953   -2.9460   -1.6837 C.3       1 <0>         0.0000
     21 C21         4.6407   -8.6189    2.5949 C.3       1 <0>         0.0000
     22 C22         6.8811   -7.4311    5.5097 C.3       1 <0>        -0.1060
     23 C23         5.6938   -8.0957    4.8150 C.3       1 <0>         0.0000
     24 C24         5.3835   -7.5498    3.4047 C.3       1 <0>         0.0000
     25 O1          8.1511   -7.3825    7.5151 O.co2     1 <0>        -0.9000
     26 O2         -1.4768   -0.7185   -1.9968 O.2       1 <0>        -0.5700
     27 O3          3.0231   -1.5259    2.9951 O.2       1 <0>        -0.5700
     28 O4          2.5473   -7.3535    1.6579 O.2       1 <0>        -0.5700
     29 O5          6.5808   -9.0164    7.2255 O.co2     1 <0>        -0.9000
     30 H1         -1.2118   -3.1590   -2.5766 H         1 <0>         0.0000
     31 H2          0.3704   -2.6836   -3.2019 H         1 <0>         0.0000
     32 H3          1.4687   -0.4017   -1.8099 H         1 <0>         0.0000
     33 H4          0.3693    0.2143   -0.5714 H         1 <0>         0.0000
     34 H5          2.1246   -0.0573    1.2013 H         1 <0>         0.0000
     35 H6          3.3056   -0.7488    0.0852 H         1 <0>         0.0000
     36 H7          3.1123   -5.5216   -0.6221 H         1 <0>         0.0000
     37 H8          1.4805   -5.9042   -0.0729 H         1 <0>         0.0000
     38 H9         -0.3273   -3.8499   -0.4600 H         1 <0>         0.0000
     39 H10         0.6301   -4.6118   -1.7236 H         1 <0>         0.0000
     40 H11         4.5653   -3.0754    4.2217 H         1 <0>         0.0000
     41 H12         5.7253   -3.3934    2.9275 H         1 <0>         0.0000
     42 H13         6.3888   -5.2351    4.1380 H         1 <0>         0.0000
     43 H14         5.0127   -5.1142    5.2371 H         1 <0>         0.0000
     44 H15         4.2364   -3.1737    0.7330 H         1 <0>         0.0000
     45 H16         0.5074   -1.8295    0.7222 H         1 <0>         0.0000
     46 H17         1.3295   -3.9815    1.3174 H         1 <0>         0.0000
     47 H18         2.8506   -4.3443    3.1749 H         1 <0>         0.0000
     48 H19         3.6389   -6.4868    3.9875 H         1 <0>         0.0000
     49 H20         6.2590   -5.2236    1.5864 H         1 <0>         0.0000
     50 H21         5.1384   -5.0688    0.2198 H         1 <0>         0.0000
     51 H22         5.6028   -6.6768    0.8083 H         1 <0>         0.0000
     52 H23         3.6872   -2.5310   -1.2335 H         1 <0>         0.0000
     53 H24         2.4427   -2.3003   -2.4767 H         1 <0>         0.0000
     54 H25         2.9986   -3.9355   -2.0708 H         1 <0>         0.0000
     55 H26         3.6829   -8.8706    3.0624 H         1 <0>         0.0000
     56 H27         5.2321   -9.5387    2.5330 H         1 <0>         0.0000
     57 H28         4.4407   -8.2752    1.5744 H         1 <0>         0.0000
     58 H29         7.7633   -7.4587    4.8602 H         1 <0>         0.0000
     59 H30         6.6455   -6.3695    5.6589 H         1 <0>         0.0000
     60 H31         4.8083   -7.9715    5.4520 H         1 <0>         0.0000
     61 H32         5.8748   -9.1764    4.7523 H         1 <0>         0.0000
     62 H33         6.3291   -7.3448    2.8849 H         1 <0>         0.0000
@<TRIPOS>BOND
     1    1    5 1
     2    1    6 1
     3    1   26 2
     4    2    7 1
     5    2   12 1
     6    2   27 2
     7    3    8 1
     8    3   17 1
     9    3   28 2
    10    4   22 1
    11    4   25 1
    12    4   29 2
    13    5    9 1
    14    6   13 1
    15    7   13 1
    16    8   14 1
    17    9   18 1
    18   10   11 1
    19   10   15 1
    20   11   16 1
    21   12   14 1
    22   12   15 1
    23   13   18 1
    24   14   18 1
    25   15   17 1
    26   16   17 1
    27   16   24 1
    28   17   19 1
    29   18   20 1
    30   21   24 1
    31   22   23 1
    32   23   24 1
    33    5   30 1
    34    5   31 1
    35    6   32 1
    36    6   33 1
    37    7   34 1
    38    7   35 1
    39    8   36 1
    40    8   37 1
    41    9   38 1
    42    9   39 1
    43   10   40 1
    44   10   41 1
    45   11   42 1
    46   11   43 1
    47   12   44 1
    48   13   45 1
    49   14   46 1
    50   15   47 1
    51   16   48 1
    52   19   49 1
    53   19   50 1
    54   19   51 1
    55   20   52 1
    56   20   53 1
    57   20   54 1
    58   21   55 1
    59   21   56 1
    60   21   57 1
    61   22   58 1
    62   22   59 1
    63   23   60 1
    64   23   61 1
    65   24   62 1
@<TRIPOS>MOLECULE
ZINC06036237_10
   67    70     0     0     0
SMALL
USER_CHARGES

mmff94s_NoEstat = 111.67
@<TRIPOS>ATOM
      1 C1          7.9485   -9.0341    6.5375 C.2       1 <0>         0.9060
      2 C2          0.9872   -1.8380    1.4492 C.3       1 <0>         0.0000
      3 C3          1.9544   -2.4542    2.4605 C.3       1 <0>         0.0000
      4 C4          4.1099   -3.9370    4.1517 C.3       1 <0>         0.0000
      5 C5          4.8367   -5.1641    4.7305 C.3       1 <0>         0.0000
      6 C6         -0.1096   -2.8273   -2.1355 C.3       1 <0>         0.0000
      7 C7          0.5930   -3.7866   -1.1834 C.3       1 <0>         0.0000
      8 C8          0.8071   -0.8606   -0.8836 C.3       1 <0>         0.0000
      9 C9          3.1250   -5.4317    0.1548 C.3       1 <0>         0.0000
     10 C10         1.6180   -1.7691    0.0565 C.3       1 <0>         0.0000
     11 C11         2.9453   -3.4657    1.8457 C.3       1 <0>         0.0000
     12 C12         3.3986   -4.4725    2.9102 C.3       1 <0>         0.0000
     13 C13         2.2963   -4.2096    0.6458 C.3       1 <0>         0.0000
     14 C14         4.6398   -6.3039    3.7040 C.3       1 <0>         0.0000
     15 C15        -0.4493   -1.5182   -1.4390 C.3       1 <0>         0.2800
     16 C16         3.6139   -6.3615    1.2818 C.3       1 <0>         0.2800
     17 C17         1.8761   -3.2082   -0.5148 C.3       1 <0>         0.0000
     18 C18         4.3558   -5.5585    2.3725 C.3       1 <0>         0.0000
     19 C19         2.9811   -3.0804   -1.5927 C.3       1 <0>         0.0000
     20 C20         5.6686   -4.9815    1.7774 C.3       1 <0>         0.0000
     21 C21         5.3617   -8.5902    2.9874 C.3       1 <0>         0.0000
     22 C22         7.4486   -8.6512    5.1418 C.3       1 <0>        -0.1060
     23 C23         6.3147   -7.6283    5.1037 C.3       1 <0>         0.0000
     24 C24         5.7937   -7.2960    3.6881 C.3       1 <0>         0.0000
     25 O1          8.9522   -9.7984    6.5772 O.co2     1 <0>        -0.9000
     26 O2          7.2743   -8.5439    7.4880 O.co2     1 <0>        -0.9000
     27 O3         -1.0624   -0.6488   -2.3859 O.3       1 <0>        -0.6800
     28 O4          2.4732   -7.0415    1.8023 O.3       1 <0>        -0.6800
     29 H1          0.0730   -2.4265    1.4232 H         1 <0>         0.0000
     30 H2          0.7141   -0.8397    1.7832 H         1 <0>         0.0000
     31 H3          2.5154   -1.6373    2.9453 H         1 <0>         0.0000
     32 H4          1.3851   -2.9377    3.2724 H         1 <0>         0.0000
     33 H5          3.4054   -3.5159    4.8762 H         1 <0>         0.0000
     34 H6          4.8297   -3.1516    3.8959 H         1 <0>         0.0000
     35 H7          5.8951   -4.9304    4.8896 H         1 <0>         0.0000
     36 H8          4.4159   -5.4482    5.7010 H         1 <0>         0.0000
     37 H9          0.5547   -2.6333   -2.9841 H         1 <0>         0.0000
     38 H10        -1.0180   -3.2874   -2.5351 H         1 <0>         0.0000
     39 H11        -0.1206   -4.1344   -0.4256 H         1 <0>         0.0000
     40 H12         0.8644   -4.6908   -1.7498 H         1 <0>         0.0000
     41 H13         0.5165    0.0713   -0.3760 H         1 <0>         0.0000
     42 H14         1.4536   -0.5608   -1.7248 H         1 <0>         0.0000
     43 H15         2.5045   -6.0333   -0.5234 H         1 <0>         0.0000
     44 H16         3.9874   -5.0903   -0.4311 H         1 <0>         0.0000
     45 H17         2.6088   -1.2879    0.1896 H         1 <0>         0.0000
     46 H18         3.8097   -2.8895    1.5116 H         1 <0>         0.0000
     47 H19         2.4814   -4.9539    3.2943 H         1 <0>         0.0000
     48 H20         1.3481   -4.6369    1.0268 H         1 <0>         0.0000
     49 H21         3.7416   -6.8606    4.0049 H         1 <0>         0.0000
     50 H22        -1.1651   -1.6956   -0.6401 H         1 <0>         0.0000
     51 H23         4.2534   -7.1190    0.8659 H         1 <0>         0.0000
     52 H24         3.8711   -2.6791   -1.1287 H         1 <0>         0.0000
     53 H25         2.6304   -2.4152   -2.3691 H         1 <0>         0.0000
     54 H26         3.1804   -4.0613   -2.0006 H         1 <0>         0.0000
     55 H27         6.2767   -5.8028    1.4267 H         1 <0>         0.0000
     56 H28         6.1856   -4.4346    2.5524 H         1 <0>         0.0000
     57 H29         5.4146   -4.3245    0.9582 H         1 <0>         0.0000
     58 H30         4.5404   -9.0745    3.5262 H         1 <0>         0.0000
     59 H31         6.1935   -9.3012    2.9409 H         1 <0>         0.0000
     60 H32         5.0267   -8.3929    1.9634 H         1 <0>         0.0000
     61 H33         7.1613   -9.5550    4.5926 H         1 <0>         0.0000
     62 H34         8.3117   -8.2321    4.6087 H         1 <0>         0.0000
     63 H35         6.6670   -6.7055    5.5827 H         1 <0>         0.0000
     64 H36         5.4826   -7.9928    5.7197 H         1 <0>         0.0000
     65 H37         6.6149   -6.8654    3.0985 H         1 <0>         0.0000
     66 H38        -1.2661    0.1730   -1.9135 H         1 <0>         0.4000
     67 H39         2.0895   -7.5402    1.0646 H         1 <0>         0.4000
@<TRIPOS>BOND
     1    1   22 1
     2    1   25 1
     3    1   26 2
     4    2    3 1
     5    2   10 1
     6    3   11 1
     7    4    5 1
     8    4   12 1
     9    5   14 1
    10    6    7 1
    11    6   15 1
    12    7   17 1
    13    8   10 1
    14    8   15 1
    15    9   13 1
    16    9   16 1
    17   10   17 1
    18   11   12 1
    19   11   13 1
    20   12   18 1
    21   13   17 1
    22   14   18 1
    23   14   24 1
    24   15   27 1
    25   16   18 1
    26   16   28 1
    27   17   19 1
    28   18   20 1
    29   21   24 1
    30   22   23 1
    31   23   24 1
    32    2   29 1
    33    2   30 1
    34    3   31 1
    35    3   32 1
    36    4   33 1
    37    4   34 1
    38    5   35 1
    39    5   36 1
    40    6   37 1
    41    6   38 1
    42    7   39 1
    43    7   40 1
    44    8   41 1
    45    8   42 1
    46    9   43 1
    47    9   44 1
    48   10   45 1
    49   11   46 1
    50   12   47 1
    51   13   48 1
    52   14   49 1
    53   15   50 1
    54   16   51 1
    55   19   52 1
    56   19   53 1
    57   19   54 1
    58   20   55 1
    59   20   56 1
    60   20   57 1
    61   21   58 1
    62   21   59 1
    63   21   60 1
    64   22   61 1
    65   22   62 1
    66   23   63 1
    67   23   64 1
    68   24   65 1
    69   27   66 1
    70   28   67 1
@<TRIPOS>MOLECULE
ZINC03782605_12
   63    66     0     0     0
SMALL
USER_CHARGES

mmff94s_NoEstat = 90.02
@<TRIPOS>ATOM
      1 C1         -0.5279   -2.7761   -1.7713 C.2       1 <0>        -0.1356
      2 C2          0.4185   -3.5714   -1.2494 C.2       1 <0>        -0.2882
      3 C3         -0.4311   -1.2963   -1.6470 C.2       1 <0>         0.6156
      4 C4          5.3702   -7.5305    3.3701 C.2       1 <0>         0.5690
      5 C5          5.0287   -5.2347    4.3700 C.3       1 <0>         0.0000
      6 C6          4.5956   -3.9044    3.7274 C.3       1 <0>         0.0000
      7 C7          2.7212   -1.9966    2.1370 C.3       1 <0>         0.0000
      8 C8          2.5478   -5.4116    0.1687 C.3       1 <0>         0.0000
      9 C9          2.2053   -1.0519    1.0536 C.3       1 <0>         0.0000
     10 C10         3.0417   -6.3299    1.3022 C.3       1 <0>         0.0000
     11 C11         4.4482   -6.3562    3.4828 C.3       1 <0>         0.0610
     12 C12         3.1926   -3.3432    1.5654 C.3       1 <0>         0.0000
     13 C13         2.0955   -4.0114    0.6661 C.3       1 <0>         0.0000
     14 C14         3.5709   -4.3254    2.6796 C.3       1 <0>         0.0000
     15 C15         1.1194   -1.7375    0.2291 C.3       1 <0>         0.3001
     16 C16         1.6117   -3.0384   -0.4673 C.3       1 <0>         0.1382
     17 C17         4.1372   -5.6572    2.1408 C.3       1 <0>         0.0000
     18 C18         2.7327   -2.7643   -1.4987 C.3       1 <0>         0.0000
     19 C19         5.4230   -5.4954    1.2879 C.3       1 <0>         0.0000
     20 C20         6.9536   -8.8924    7.1127 C.3       1 <0>         0.0000
     21 C21         8.9981   -9.8145    5.9750 C.3       1 <0>         0.0000
     22 C22         7.1386   -8.7948    4.5773 C.3       1 <0>         0.3001
     23 C23         7.8921   -8.7601    5.9124 C.3       1 <0>         0.0000
     24 N1          0.4843   -0.8381   -0.7200 N.am      1 <0>        -0.7301
     25 N2          6.1773   -7.7202    4.4756 N.am      1 <0>        -0.7301
     26 O1         -1.1311   -0.5671   -2.3445 O.2       1 <0>        -0.5700
     27 O2          5.3521   -8.2178    2.3557 O.2       1 <0>        -0.5700
     28 H1         -1.3447   -3.1826   -2.3563 H         1 <0>         0.1500
     29 H2          0.3401   -4.6378   -1.4335 H         1 <0>         0.1500
     30 H3          6.1203   -5.2793    4.4540 H         1 <0>         0.0000
     31 H4          4.6259   -5.3182    5.3861 H         1 <0>         0.0000
     32 H5          4.1691   -3.2247    4.4721 H         1 <0>         0.0000
     33 H6          5.4542   -3.3996    3.2712 H         1 <0>         0.0000
     34 H7          3.5427   -1.5056    2.6716 H         1 <0>         0.0000
     35 H8          1.9242   -2.1665    2.8724 H         1 <0>         0.0000
     36 H9          3.3377   -5.3127   -0.5822 H         1 <0>         0.0000
     37 H10         1.7160   -5.9224   -0.3276 H         1 <0>         0.0000
     38 H11         1.8015   -0.1492    1.5288 H         1 <0>         0.0000
     39 H12         3.0302   -0.7156    0.4151 H         1 <0>         0.0000
     40 H13         2.1853   -6.5883    1.9386 H         1 <0>         0.0000
     41 H14         3.4059   -7.2732    0.8778 H         1 <0>         0.0000
     42 H15         3.5194   -6.7251    3.9380 H         1 <0>         0.0000
     43 H16         4.0819   -3.1357    0.9615 H         1 <0>         0.0000
     44 H17         1.2244   -4.1976    1.3151 H         1 <0>         0.0000
     45 H18         2.6422   -4.5423    3.2344 H         1 <0>         0.0000
     46 H19         0.3100   -2.0043    0.9272 H         1 <0>         0.0000
     47 H20         3.6006   -2.3828   -0.9773 H         1 <0>         0.0000
     48 H21         2.3773   -2.0345   -2.2140 H         1 <0>         0.0000
     49 H22         2.9776   -3.6905   -2.0017 H         1 <0>         0.0000
     50 H23         6.1817   -5.0210    1.8941 H         1 <0>         0.0000
     51 H24         5.1920   -4.8823    0.4283 H         1 <0>         0.0000
     52 H25         5.7532   -6.4751    0.9724 H         1 <0>         0.0000
     53 H26         6.4307   -9.8543    7.1174 H         1 <0>         0.0000
     54 H27         7.5162   -8.8167    8.0496 H         1 <0>         0.0000
     55 H28         6.2031   -8.0949    7.1097 H         1 <0>         0.0000
     56 H29         8.5946  -10.8303    5.9105 H         1 <0>         0.0000
     57 H30         9.5525   -9.7352    6.9165 H         1 <0>         0.0000
     58 H31         9.7118   -9.6782    5.1557 H         1 <0>         0.0000
     59 H32         7.8372   -8.7155    3.7375 H         1 <0>         0.0000
     60 H33         6.6012   -9.7440    4.4731 H         1 <0>         0.0000
     61 H34         8.3732   -7.7756    5.9826 H         1 <0>         0.0000
     62 H35         0.7193    0.1497   -0.7010 H         1 <0>         0.3700
     63 H36         6.0911   -7.0735    5.2539 H         1 <0>         0.3700
@<TRIPOS>BOND
     1    1    2 2
     2    1    3 1
     3    2   16 1
     4    3   24 am
     5    3   26 2
     6    4   11 1
     7    4   25 am
     8    4   27 2
     9    5    6 1
    10    5   11 1
    11    6   14 1
    12    7    9 1
    13    7   12 1
    14    8   10 1
    15    8   13 1
    16    9   15 1
    17   10   17 1
    18   11   17 1
    19   12   13 1
    20   12   14 1
    21   13   16 1
    22   14   17 1
    23   15   16 1
    24   15   24 1
    25   16   18 1
    26   17   19 1
    27   20   23 1
    28   21   23 1
    29   22   23 1
    30   22   25 1
    31    1   28 1
    32    2   29 1
    33    5   30 1
    34    5   31 1
    35    6   32 1
    36    6   33 1
    37    7   34 1
    38    7   35 1
    39    8   36 1
    40    8   37 1
    41    9   38 1
    42    9   39 1
    43   10   40 1
    44   10   41 1
    45   11   42 1
    46   12   43 1
    47   13   44 1
    48   14   45 1
    49   15   46 1
    50   18   47 1
    51   18   48 1
    52   18   49 1
    53   19   50 1
    54   19   51 1
    55   19   52 1
    56   20   53 1
    57   20   54 1
    58   20   55 1
    59   21   56 1
    60   21   57 1
    61   21   58 1
    62   22   59 1
    63   22   60 1
    64   23   61 1
    65   24   62 1
    66   25   63 1
@<TRIPOS>MOLECULE
ZINC00826952_158
   41    44     0     0     0
SMALL
USER_CHARGES

mmff94s_NoEstat = 78.96
@<TRIPOS>ATOM
      1 C1          0.1810   -2.2819   -2.3069 C.ar      1 <0>        -0.1500
      2 C2          0.0242   -1.0421   -1.6638 C.ar      1 <0>        -0.1500
      3 C3          0.9169   -3.3121   -1.7132 C.ar      1 <0>        -0.1500
      4 C4          3.4998   -5.8212    1.2021 C.ar      1 <0>        -0.1500
      5 C5          2.7230   -5.2381    0.1963 C.ar      1 <0>        -0.1500
      6 C6          0.6000   -0.8072   -0.4138 C.ar      1 <0>        -0.1500
      7 C7          3.3977   -3.7911    2.5445 C.ar      1 <0>        -0.1500
      8 C8          5.4860   -5.0232    4.1976 C.2       1 <0>        -0.1100
      9 C9          3.8337   -5.1049    2.3644 C.ar      1 <0>         0.0540
     10 C10         1.4882   -3.0793   -0.4733 C.ar      1 <0>         0.0000
     11 C11         2.2903   -3.9347    0.3746 C.ar      1 <0>         0.0000
     12 C12         1.3269   -1.8308    0.1683 C.ar      1 <0>        -0.1435
     13 C13         2.6294   -3.2197    1.5453 C.ar      1 <0>        -0.1435
     14 C14         4.6336   -5.7337    3.3788 C.2       1 <0>         0.1732
     15 C15         5.4180   -7.4028    4.5658 C.2       1 <0>         0.4421
     16 C16         6.5589   -9.0030    6.1405 C.2       1 <0>         0.5690
     17 C17         9.0593  -10.9326    5.8507 C.2       1 <0>         0.9060
     18 C18         2.0415   -1.8246    1.5035 C.3       1 <0>         0.2870
     19 C19         6.5535  -10.5050    6.3999 C.3       1 <0>         0.0610
     20 C20         7.5872  -11.2662    5.5794 C.3       1 <0>        -0.1060
     21 N1          4.5935   -7.0984    3.5881 N.2       1 <0>        -0.5653
     22 N2          5.6766   -8.6424    5.0876 N.am      1 <0>        -0.4940
     23 O1          9.4338   -9.7603    5.5737 O.co2     1 <0>        -0.9000
     24 O2          7.2645   -8.2329    6.7834 O.2       1 <0>        -0.5700
     25 O3          9.7255  -11.8941    6.3327 O.co2     1 <0>        -0.9000
     26 S1          6.2732   -6.0969    5.2788 S.3       1 <0>        -0.0800
     27 H1         -0.2771   -2.4410   -3.2799 H         1 <0>         0.1500
     28 H2         -0.5529   -0.2580   -2.1468 H         1 <0>         0.1500
     29 H3          1.0290   -4.2637   -2.2221 H         1 <0>         0.1500
     30 H4          3.8436   -6.8454    1.0691 H         1 <0>         0.1500
     31 H5          2.4734   -5.8026   -0.6957 H         1 <0>         0.1500
     32 H6          0.4783    0.1497    0.0809 H         1 <0>         0.1500
     33 H7          3.6483   -3.2265    3.4373 H         1 <0>         0.1500
     34 H8          5.6855   -3.9606    4.2193 H         1 <0>         0.1500
     35 H9          2.8331   -1.0697    1.5162 H         1 <0>         0.0000
     36 H10         1.3309   -1.6795    2.3222 H         1 <0>         0.0000
     37 H11         6.7079  -10.6799    7.4712 H         1 <0>         0.0000
     38 H12         5.5535  -10.8769    6.1447 H         1 <0>         0.0000
     39 H13         7.3952  -11.1215    4.5089 H         1 <0>         0.0000
     40 H14         7.4686  -12.3378    5.7834 H         1 <0>         0.0000
     41 H15         5.1550   -9.4279    4.6529 H         1 <0>         0.3700
@<TRIPOS>BOND
     1    1    2 ar
     2    1    3 ar
     3    2    6 ar
     4    3   10 ar
     5    4    5 ar
     6    4    9 ar
     7    5   11 ar
     8    6   12 ar
     9    7    9 ar
    10    7   13 ar
    11    8   14 2
    12    8   26 1
    13    9   14 1
    14   10   11 1
    15   10   12 ar
    16   11   13 ar
    17   12   18 1
    18   13   18 1
    19   14   21 1
    20   15   21 2
    21   15   22 1
    22   15   26 1
    23   16   19 1
    24   16   22 am
    25   16   24 2
    26   17   20 1
    27   17   23 1
    28   17   25 2
    29   19   20 1
    30    1   27 1
    31    2   28 1
    32    3   29 1
    33    4   30 1
    34    5   31 1
    35    6   32 1
    36    7   33 1
    37    8   34 1
    38   18   35 1
    39   18   36 1
    40   19   37 1
    41   19   38 1
    42   20   39 1
    43   20   40 1
    44   22   41 1
@<TRIPOS>MOLECULE
ZINC04026837_65
   54    57     0     0     0
SMALL
USER_CHARGES

mmff94s_NoEstat = 99.65
@<TRIPOS>ATOM
      1 C1          0.2973   -3.6098   -1.0405 C.ar      1 <0>        -0.1500
      2 C2         -0.5282   -2.6952   -1.6974 C.ar      1 <0>        -0.1500
      3 C3          0.7400   -0.8746   -0.7627 C.ar      1 <0>        -0.1500
      4 C4          1.3524   -3.1718   -0.2260 C.ar      1 <0>        -0.1435
      5 C5          1.5788   -1.7818   -0.0944 C.ar      1 <0>        -0.1435
      6 C6         -0.3070   -1.3293   -1.5603 C.ar      1 <0>         0.0825
      7 C7          7.5032  -11.1287    3.6354 C.2       1 <0>         0.9060
      8 C8          5.6263   -8.6143    3.7447 C.2       1 <0>         0.6590
      9 C9          2.6668   -1.2187    0.7966 C.3       1 <0>         0.1435
     10 C10         3.5739   -2.2511    1.4825 C.3       1 <0>         0.0000
     11 C11         1.8771   -5.5979    0.6411 C.3       1 <0>         0.0000
     12 C12         4.4934   -4.1473    3.7329 C.3       1 <0>         0.0000
     13 C13         5.1472   -5.4727    4.1626 C.3       1 <0>         0.0000
     14 C14         3.0124   -6.5102    1.1644 C.3       1 <0>         0.0000
     15 C15         2.3183   -4.1359    0.4439 C.3       1 <0>         0.1435
     16 C16         2.7858   -3.5230    1.7940 C.3       1 <0>         0.0000
     17 C17         3.4518   -4.5672    2.6993 C.3       1 <0>         0.0000
     18 C18         4.5881   -6.5542    3.2187 C.3       1 <0>         0.2800
     19 C19         4.0915   -5.7677    1.9817 C.3       1 <0>         0.0000
     20 C20         5.2955   -5.4128    1.0747 C.3       1 <0>         0.0000
     21 C21         7.4002  -10.1002    4.7683 C.3       1 <0>        -0.1060
     22 C22         7.0012   -8.6835    4.3733 C.3       1 <0>         0.0610
     23 O1          7.2319  -12.3245    3.9308 O.co2     1 <0>        -0.9000
     24 O2          7.8497  -10.6368    2.5225 O.co2     1 <0>        -0.9000
     25 O3          4.7110   -9.3970    3.9592 O.2       1 <0>        -0.5700
     26 O4         -1.1118   -0.4398   -2.2018 O.3       1 <0>        -0.5325
     27 O5          5.5619   -7.5307    2.9033 O.3       1 <0>        -0.4300
     28 H1          0.0994   -4.6669   -1.1883 H         1 <0>         0.1500
     29 H2         -1.3405   -3.0590   -2.3210 H         1 <0>         0.1500
     30 H3          0.9039    0.1955   -0.6530 H         1 <0>         0.1500
     31 H4          3.2914   -0.5258    0.2200 H         1 <0>         0.0000
     32 H5          2.1711   -0.6322    1.5814 H         1 <0>         0.0000
     33 H6          4.4250   -2.4825    0.8308 H         1 <0>         0.0000
     34 H7          3.9860   -1.7984    2.3908 H         1 <0>         0.0000
     35 H8          1.5124   -6.0347   -0.2951 H         1 <0>         0.0000
     36 H9          1.0333   -5.6302    1.3431 H         1 <0>         0.0000
     37 H10         4.0394   -3.6273    4.5824 H         1 <0>         0.0000
     38 H11         5.2560   -3.4878    3.3062 H         1 <0>         0.0000
     39 H12         6.2396   -5.4041    4.1088 H         1 <0>         0.0000
     40 H13         4.8947   -5.7129    5.2015 H         1 <0>         0.0000
     41 H14         2.5501   -7.3054    1.7627 H         1 <0>         0.0000
     42 H15         3.4773   -7.0235    0.3132 H         1 <0>         0.0000
     43 H16         3.1591   -4.1694   -0.2595 H         1 <0>         0.0000
     44 H17         1.8930   -3.1983    2.3533 H         1 <0>         0.0000
     45 H18         2.6145   -4.9776    3.2926 H         1 <0>         0.0000
     46 H19         3.7509   -7.0638    3.7127 H         1 <0>         0.0000
     47 H20         6.0369   -4.8944    1.6679 H         1 <0>         0.0000
     48 H21         4.9499   -4.7770    0.2708 H         1 <0>         0.0000
     49 H22         5.7111   -6.3279    0.6745 H         1 <0>         0.0000
     50 H23         8.3891  -10.0607    5.2425 H         1 <0>         0.0000
     51 H24         6.7005  -10.4887    5.5192 H         1 <0>         0.0000
     52 H25         7.7296   -8.2647    3.6700 H         1 <0>         0.0000
     53 H26         6.9826   -8.0570    5.2724 H         1 <0>         0.0000
     54 H27        -0.8314    0.4691   -2.0079 H         1 <0>         0.4500
@<TRIPOS>BOND
     1    1    2 ar
     2    1    4 ar
     3    2    6 ar
     4    3    5 ar
     5    3    6 ar
     6    4    5 ar
     7    4   15 1
     8    5    9 1
     9    6   26 1
    10    7   21 1
    11    7   23 1
    12    7   24 2
    13    8   22 1
    14    8   25 2
    15    8   27 1
    16    9   10 1
    17   10   16 1
    18   11   14 1
    19   11   15 1
    20   12   13 1
    21   12   17 1
    22   13   18 1
    23   14   19 1
    24   15   16 1
    25   16   17 1
    26   17   19 1
    27   18   19 1
    28   18   27 1
    29   19   20 1
    30   21   22 1
    31    1   28 1
    32    2   29 1
    33    3   30 1
    34    9   31 1
    35    9   32 1
    36   10   33 1
    37   10   34 1
    38   11   35 1
    39   11   36 1
    40   12   37 1
    41   12   38 1
    42   13   39 1
    43   13   40 1
    44   14   41 1
    45   14   42 1
    46   15   43 1
    47   16   44 1
    48   17   45 1
    49   18   46 1
    50   20   47 1
    51   20   48 1
    52   20   49 1
    53   21   50 1
    54   21   51 1
    55   22   52 1
    56   22   53 1
    57   26   54 1
@<TRIPOS>MOLECULE
ZINC04095893_172
   77    80     0     0     0
SMALL
USER_CHARGES

mmff94s_NoEstat = 109.81
@<TRIPOS>ATOM
      1 C1          5.4913   -8.6196    6.9600 C.2       1 <0>         0.5690
      2 C2          2.3365   -0.9132    0.9858 C.3       1 <0>         0.0000
      3 C3          2.7674   -1.9176    2.0504 C.3       1 <0>         0.0000
      4 C4          4.5734   -3.8771    3.6567 C.3       1 <0>         0.0000
      5 C5          2.7888   -5.2086   -0.1109 C.3       1 <0>         0.0000
      6 C6          5.0315   -5.2322    4.2274 C.3       1 <0>         0.0000
      7 C7         -0.5666   -3.5744   -0.9706 C.3       1 <0>         0.0000
      8 C8          3.2227   -6.1816    1.0010 C.3       1 <0>         0.0000
      9 C9          0.7857   -3.3777   -1.6440 C.3       1 <0>         0.0000
     10 C10        -0.0398   -1.6849    0.6124 C.3       1 <0>         0.0000
     11 C11         1.3482   -1.4988   -0.0367 C.3       1 <0>         0.0000
     12 C12         3.3155   -3.2121    1.4363 C.3       1 <0>         0.0000
     13 C13         3.6317   -4.2528    2.5164 C.3       1 <0>         0.0000
     14 C14         2.3006   -3.8346    0.4234 C.3       1 <0>         0.0000
     15 C15         4.4864   -6.3143    3.2663 C.3       1 <0>         0.0000
     16 C16        -1.0616   -2.2709   -0.3571 C.3       1 <0>         0.2800
     17 C17         1.8872   -2.8113   -0.7006 C.3       1 <0>         0.0000
     18 C18         4.2530   -5.5447    1.9432 C.3       1 <0>         0.0000
     19 C19         3.0948   -2.4664   -1.6109 C.3       1 <0>         0.0000
     20 C20         5.5855   -5.3245    1.1843 C.3       1 <0>         0.0000
     21 C21         4.6026   -8.7226    2.5978 C.3       1 <0>         0.0000
     22 C22         4.8885   -8.2308    5.6203 C.3       1 <0>         0.0610
     23 C23         5.9541   -7.8689    4.5852 C.3       1 <0>         0.0000
     24 C24         6.3085  -10.6230    8.1938 C.3       1 <0>         0.3001
     25 C25         7.6233  -11.3132    7.8854 C.3       1 <0>         0.1052
     26 C26         5.3807   -7.5435    3.1908 C.3       1 <0>         0.0000
     27 N1          5.7427   -9.9823    7.0287 N.am      1 <0>        -0.7301
     28 O1          8.6357   -8.9933    8.0461 O.3       1 <0>        -0.8167
     29 O2          5.7131   -7.8117    7.8578 O.2       1 <0>        -0.5700
     30 O3         10.0924  -10.9001    7.4788 O.2       1 <0>        -0.8167
     31 O4          8.4516  -10.0705    5.8356 O.2       1 <0>        -0.8167
     32 O5         -2.2748   -2.5063    0.3500 O.3       1 <0>        -0.6800
     33 S1          8.8318  -10.1983    7.2417 S.o2      1 <0>         1.3448
     34 H1          1.8931   -0.0373    1.4754 H         1 <0>         0.0000
     35 H2          3.2272   -0.5435    0.4636 H         1 <0>         0.0000
     36 H3          3.5343   -1.4498    2.6793 H         1 <0>         0.0000
     37 H4          1.9236   -2.1429    2.7131 H         1 <0>         0.0000
     38 H5          4.0719   -3.2743    4.4204 H         1 <0>         0.0000
     39 H6          5.4345   -3.3042    3.2949 H         1 <0>         0.0000
     40 H7          3.6185   -5.0738   -0.8115 H         1 <0>         0.0000
     41 H8          1.9857   -5.6963   -0.6737 H         1 <0>         0.0000
     42 H9          6.1248   -5.2558    4.2979 H         1 <0>         0.0000
     43 H10         4.6363   -5.3862    5.2377 H         1 <0>         0.0000
     44 H11        -1.2973   -3.9324   -1.7064 H         1 <0>         0.0000
     45 H12        -0.5149   -4.3606   -0.2082 H         1 <0>         0.0000
     46 H13         2.3313   -6.4829    1.5664 H         1 <0>         0.0000
     47 H14         3.6248   -7.0968    0.5500 H         1 <0>         0.0000
     48 H15         1.1050   -4.3198   -2.1024 H         1 <0>         0.0000
     49 H16         0.6419   -2.6819   -2.4830 H         1 <0>         0.0000
     50 H17         0.0150   -2.3227    1.5023 H         1 <0>         0.0000
     51 H18        -0.4116   -0.7188    0.9785 H         1 <0>         0.0000
     52 H19         1.2209   -0.7443   -0.8268 H         1 <0>         0.0000
     53 H20         4.2431   -2.9532    0.9159 H         1 <0>         0.0000
     54 H21         2.6707   -4.5115    2.9923 H         1 <0>         0.0000
     55 H22         1.3961   -4.0631    1.0040 H         1 <0>         0.0000
     56 H23         3.5131   -6.6464    3.6566 H         1 <0>         0.0000
     57 H24        -1.2736   -1.5409   -1.1475 H         1 <0>         0.0000
     58 H25         3.8885   -2.0674   -0.9951 H         1 <0>         0.0000
     59 H26         2.7798   -1.7320   -2.3388 H         1 <0>         0.0000
     60 H27         3.4225   -3.3694   -2.1065 H         1 <0>         0.0000
     61 H28         6.3001   -4.8757    1.8607 H         1 <0>         0.0000
     62 H29         5.4024   -4.6677    0.3448 H         1 <0>         0.0000
     63 H30         5.9497   -6.2820    0.8373 H         1 <0>         0.0000
     64 H31         3.7497   -9.0001    3.2244 H         1 <0>         0.0000
     65 H32         5.2452   -9.6062    2.5172 H         1 <0>         0.0000
     66 H33         4.2284   -8.4851    1.5963 H         1 <0>         0.0000
     67 H34         4.2874   -9.0733    5.2584 H         1 <0>         0.0000
     68 H35         4.2176   -7.3824    5.7937 H         1 <0>         0.0000
     69 H36         6.5449   -7.0189    4.9512 H         1 <0>         0.0000
     70 H37         6.6540   -8.7095    4.4889 H         1 <0>         0.0000
     71 H38         5.5645  -11.3285    8.5767 H         1 <0>         0.0000
     72 H39         6.4608   -9.8412    8.9441 H         1 <0>         0.0000
     73 H40         7.4795  -12.0828    7.1212 H         1 <0>         0.0000
     74 H41         8.0577  -11.7769    8.7762 H         1 <0>         0.0000
     75 H42         6.2191   -7.3182    2.5153 H         1 <0>         0.0000
     76 H43         5.5011  -10.5723    6.2379 H         1 <0>         0.3700
     77 H44        -2.5500   -1.6530    0.7208 H         1 <0>         0.4000
@<TRIPOS>BOND
     1    1   22 1
     2    1   27 am
     3    1   29 2
     4    2    3 1
     5    2   11 1
     6    3   12 1
     7    4    6 1
     8    4   13 1
     9    5    8 1
    10    5   14 1
    11    6   15 1
    12    7    9 1
    13    7   16 1
    14    8   18 1
    15    9   17 1
    16   10   11 1
    17   10   16 1
    18   11   17 1
    19   12   13 1
    20   12   14 1
    21   13   18 1
    22   14   17 1
    23   15   18 1
    24   15   26 1
    25   16   32 1
    26   17   19 1
    27   18   20 1
    28   21   26 1
    29   22   23 1
    30   23   26 1
    31   24   25 1
    32   24   27 1
    33   25   33 1
    34   28   33 1
    35   30   33 2
    36   31   33 2
    37    2   34 1
    38    2   35 1
    39    3   36 1
    40    3   37 1
    41    4   38 1
    42    4   39 1
    43    5   40 1
    44    5   41 1
    45    6   42 1
    46    6   43 1
    47    7   44 1
    48    7   45 1
    49    8   46 1
    50    8   47 1
    51    9   48 1
    52    9   49 1
    53   10   50 1
    54   10   51 1
    55   11   52 1
    56   12   53 1
    57   13   54 1
    58   14   55 1
    59   15   56 1
    60   16   57 1
    61   19   58 1
    62   19   59 1
    63   19   60 1
    64   20   61 1
    65   20   62 1
    66   20   63 1
    67   21   64 1
    68   21   65 1
    69   21   66 1
    70   22   67 1
    71   22   68 1
    72   23   69 1
    73   23   70 1
    74   24   71 1
    75   24   72 1
    76   25   73 1
    77   25   74 1
    78   26   75 1
    79   27   76 1
    80   32   77 1
@<TRIPOS>MOLECULE
ZINC12658896_61
   73    77     0     0     0
SMALL
USER_CHARGES

mmff94s_NoEstat = 102.20
@<TRIPOS>ATOM
      1 C1          0.5596   -0.8589   -0.6232 C.2       1 <0>        -0.1356
      2 C2          1.5959   -1.6170   -0.2274 C.2       1 <0>        -0.2764
      3 C3         -0.4070   -1.3413   -1.6360 C.2       1 <0>         0.4946
      4 C4          6.5286   -9.9208    8.7772 C.2       1 <0>         0.9060
      5 C5          5.2565  -10.0300    5.9207 C.2       1 <0>         0.5690
      6 C6          4.2593   -8.6733    3.4796 C.2       1 <0>         0.6590
      7 C7          2.6235   -1.0321    0.7128 C.3       1 <0>         0.1382
      8 C8         -0.1235   -2.6515   -2.3211 C.3       1 <0>         0.0610
      9 C9          2.8911   -1.9403    1.9060 C.3       1 <0>         0.0000
     10 C10         0.5383   -3.6217   -1.3552 C.3       1 <0>         0.0000
     11 C11         8.8712  -10.3311    6.7316 C.3       1 <0>         0.0000
     12 C12         8.4557   -9.0444    7.4407 C.3       1 <0>         0.0000
     13 C13         4.5639   -3.8779    3.7040 C.3       1 <0>         0.0000
     14 C14         2.4836   -5.4451    0.1871 C.3       1 <0>         0.0000
     15 C15         4.8851   -5.1991    4.4260 C.3       1 <0>         0.0000
     16 C16         2.8490   -6.3159    1.4029 C.3       1 <0>         0.0000
     17 C17         7.7272  -10.5802    5.7605 C.3       1 <0>         0.3001
     18 C18         6.9404   -9.1712    7.5461 C.3       1 <0>         0.1941
     19 C19         3.2988   -3.3472    1.4514 C.3       1 <0>         0.0000
     20 C20         2.1829   -3.9642    0.5504 C.3       1 <0>         0.0000
     21 C21         3.5357   -4.2743    2.6476 C.3       1 <0>         0.0000
     22 C22         4.1888   -6.3117    3.6183 C.3       1 <0>         0.2800
     23 C23         1.8302   -3.0598   -0.6931 C.3       1 <0>         0.1382
     24 C24         3.9810   -5.6874    2.2251 C.3       1 <0>         0.0000
     25 C25         2.9660   -3.0494   -1.7411 C.3       1 <0>         0.0000
     26 C26         5.2995   -5.7341    1.4116 C.3       1 <0>         0.0000
     27 C27         5.0670  -10.7794    4.6259 C.3       1 <0>         0.0610
     28 C28         5.2283   -9.8359    3.4401 C.3       1 <0>         0.0610
     29 N1          6.5565   -9.9846    6.3998 N.am      1 <0>        -0.6602
     30 O1          7.0727  -11.0498    8.9283 O.co2     1 <0>        -0.9000
     31 O2         -1.3695   -0.6422   -1.9457 O.2       1 <0>        -0.5700
     32 O3          5.6876   -9.3226    9.5052 O.co2     1 <0>        -0.9000
     33 O4          4.2919   -9.5148    6.4885 O.2       1 <0>        -0.5700
     34 O5          3.0412   -8.7646    3.4162 O.2       1 <0>        -0.5700
     35 O6          4.9609   -7.4964    3.5836 O.3       1 <0>        -0.4300
     36 H1          0.4200    0.1545   -0.2618 H         1 <0>         0.1500
     37 H2          3.5571   -0.8672    0.1609 H         1 <0>         0.0000
     38 H3          2.3095   -0.0489    1.0845 H         1 <0>         0.0000
     39 H4         -1.0732   -3.0775   -2.6633 H         1 <0>         0.0000
     40 H5          0.5007   -2.4617   -3.1999 H         1 <0>         0.0000
     41 H6          3.6859   -1.4948    2.5155 H         1 <0>         0.0000
     42 H7          1.9959   -1.9919    2.5393 H         1 <0>         0.0000
     43 H8         -0.1930   -3.8734   -0.5743 H         1 <0>         0.0000
     44 H9          0.7515   -4.5539   -1.8921 H         1 <0>         0.0000
     45 H10         9.8388  -10.2479    6.2292 H         1 <0>         0.0000
     46 H11         8.9335  -11.1516    7.4564 H         1 <0>         0.0000
     47 H12         8.9625   -8.9217    8.4029 H         1 <0>         0.0000
     48 H13         8.7119   -8.1851    6.8087 H         1 <0>         0.0000
     49 H14         4.1701   -3.1303    4.4000 H         1 <0>         0.0000
     50 H15         5.4692   -3.4621    3.2475 H         1 <0>         0.0000
     51 H16         3.2952   -5.4988   -0.5452 H         1 <0>         0.0000
     52 H17         1.6080   -5.8975   -0.2915 H         1 <0>         0.0000
     53 H18         5.9679   -5.3531    4.4926 H         1 <0>         0.0000
     54 H19         4.5020   -5.1852    5.4526 H         1 <0>         0.0000
     55 H20         1.9533   -6.4364    2.0260 H         1 <0>         0.0000
     56 H21         3.1274   -7.3216    1.0659 H         1 <0>         0.0000
     57 H22         7.8909  -10.0593    4.8109 H         1 <0>         0.0000
     58 H23         7.5671  -11.6432    5.5616 H         1 <0>         0.0000
     59 H24         6.4166   -8.2202    7.5146 H         1 <0>         0.0000
     60 H25         4.2281   -3.2546    0.8786 H         1 <0>         0.0000
     61 H26         1.2765   -3.9955    1.1774 H         1 <0>         0.0000
     62 H27         2.5727   -4.3578    3.1792 H         1 <0>         0.0000
     63 H28         3.2233   -6.5512    4.0817 H         1 <0>         0.0000
     64 H29         3.1416   -4.0632   -2.0784 H         1 <0>         0.0000
     65 H30         3.8624   -2.6508   -1.2831 H         1 <0>         0.0000
     66 H31         2.6677   -2.4274   -2.5757 H         1 <0>         0.0000
     67 H32         6.0874   -5.2883    2.0029 H         1 <0>         0.0000
     68 H33         5.1603   -5.1787    0.4943 H         1 <0>         0.0000
     69 H34         5.5347   -6.7665    1.1921 H         1 <0>         0.0000
     70 H35         5.7733  -11.6145    4.5917 H         1 <0>         0.0000
     71 H36         4.0489  -11.1827    4.6366 H         1 <0>         0.0000
     72 H37         5.0930  -10.3675    2.4916 H         1 <0>         0.0000
     73 H38         6.2397   -9.4135    3.4709 H         1 <0>         0.0000
@<TRIPOS>BOND
     1    1    2 2
     2    1    3 1
     3    2    7 1
     4    2   23 1
     5    3    8 1
     6    3   31 2
     7    4   18 1
     8    4   30 1
     9    4   32 2
    10    5   27 1
    11    5   29 am
    12    5   33 2
    13    6   28 1
    14    6   34 2
    15    6   35 1
    16    7    9 1
    17    8   10 1
    18    9   19 1
    19   10   23 1
    20   11   12 1
    21   11   17 1
    22   12   18 1
    23   13   15 1
    24   13   21 1
    25   14   16 1
    26   14   20 1
    27   15   22 1
    28   16   24 1
    29   17   29 1
    30   18   29 1
    31   19   20 1
    32   19   21 1
    33   20   23 1
    34   21   24 1
    35   22   24 1
    36   22   35 1
    37   23   25 1
    38   24   26 1
    39   27   28 1
    40    1   36 1
    41    7   37 1
    42    7   38 1
    43    8   39 1
    44    8   40 1
    45    9   41 1
    46    9   42 1
    47   10   43 1
    48   10   44 1
    49   11   45 1
    50   11   46 1
    51   12   47 1
    52   12   48 1
    53   13   49 1
    54   13   50 1
    55   14   51 1
    56   14   52 1
    57   15   53 1
    58   15   54 1
    59   16   55 1
    60   16   56 1
    61   17   57 1
    62   17   58 1
    63   18   59 1
    64   19   60 1
    65   20   61 1
    66   21   62 1
    67   22   63 1
    68   25   64 1
    69   25   65 1
    70   25   66 1
    71   26   67 1
    72   26   68 1
    73   26   69 1
    74   27   70 1
    75   27   71 1
    76   28   72 1
    77   28   73 1
@<TRIPOS>MOLECULE
ZINC04097471_31
   59    62     0     0     0
SMALL
USER_CHARGES

mmff94s_NoEstat = 114.82
@<TRIPOS>ATOM
      1 C1          0.4630   -1.0125   -0.3743 C.2       1 <0>        -0.1356
      2 C2          1.5935   -1.6690   -0.0644 C.2       1 <0>        -0.2764
      3 C3         -0.4496   -1.5092   -1.4297 C.2       1 <0>         0.4946
      4 C4          5.5421   -7.5467    3.4617 C.2       1 <0>         0.4480
      5 C5          2.5675   -1.0537    0.9103 C.3       1 <0>         0.1382
      6 C6         -0.0034   -2.6864   -2.2562 C.3       1 <0>         0.0610
      7 C7          2.9531   -2.0251    2.0156 C.3       1 <0>         0.0000
      8 C8          0.7832   -3.6634   -1.3969 C.3       1 <0>         0.0000
      9 C9          4.7706   -3.9023    3.6916 C.3       1 <0>         0.0000
     10 C10         5.1711   -5.2228    4.3796 C.3       1 <0>         0.0000
     11 C11         3.3185   -6.3316    1.1994 C.3       1 <0>         0.0000
     12 C12         3.5013   -3.3454    1.4512 C.3       1 <0>         0.0000
     13 C13         3.8025   -4.3300    2.5921 C.3       1 <0>         0.0000
     14 C14         2.4604   -3.9947    0.4827 C.3       1 <0>         0.0000
     15 C15         2.8846   -5.4251    0.0260 C.3       1 <0>         0.2800
     16 C16         2.0014   -3.0168   -0.6750 C.3       1 <0>         0.1382
     17 C17         4.6246   -6.3604    3.4863 C.3       1 <0>         0.3410
     18 C18         4.3791   -5.6799    2.1105 C.3       1 <0>         0.0000
     19 C19         3.1066   -2.7293   -1.7161 C.3       1 <0>         0.0000
     20 C20         5.7326   -5.5338    1.3604 C.3       1 <0>         0.0000
     21 C21         6.3659   -7.7833    4.7096 C.3       1 <0>         0.3410
     22 O1          9.8465   -9.3779    4.8795 O.3       1 <0>        -1.0333
     23 O2          7.9034   -9.7076    6.5116 O.3       1 <0>        -1.0333
     24 O3         -1.5024   -0.9172   -1.6582 O.2       1 <0>        -0.5700
     25 O4          5.6124   -8.2798    2.4764 O.2       1 <0>        -0.5700
     26 O5          8.9765   -7.3941    6.2417 O.2       1 <0>        -1.0333
     27 O6          3.9223   -5.3754   -0.9422 O.3       1 <0>        -0.6800
     28 O7          3.4261   -6.8454    4.0835 O.3       1 <0>        -0.6800
     29 O8          7.5977   -8.3924    4.3859 O.3       1 <0>        -0.5512
     30 P1          8.6625   -8.7442    5.6038 P.3       1 <0>         1.3712
     31 H1          0.2048   -0.0652    0.0869 H         1 <0>         0.1500
     32 H2          3.4671   -0.7394    0.3669 H         1 <0>         0.0000
     33 H3          2.1542   -0.1466    1.3679 H         1 <0>         0.0000
     34 H4         -0.8920   -3.1905   -2.6521 H         1 <0>         0.0000
     35 H5          0.5869   -2.3205   -3.1021 H         1 <0>         0.0000
     36 H6          3.7059   -1.5473    2.6535 H         1 <0>         0.0000
     37 H7          2.0790   -2.2217    2.6506 H         1 <0>         0.0000
     38 H8          0.0959   -4.0847   -0.6501 H         1 <0>         0.0000
     39 H9          1.1069   -4.5012   -2.0262 H         1 <0>         0.0000
     40 H10         4.3048   -3.2134    4.4036 H         1 <0>         0.0000
     41 H11         5.6535   -3.4026    3.2774 H         1 <0>         0.0000
     42 H12         6.2615   -5.2629    4.4827 H         1 <0>         0.0000
     43 H13         4.7427   -5.2609    5.3876 H         1 <0>         0.0000
     44 H14         2.4197   -6.5699    1.7817 H         1 <0>         0.0000
     45 H15         3.7051   -7.2829    0.8139 H         1 <0>         0.0000
     46 H16         4.4228   -3.1169    0.9060 H         1 <0>         0.0000
     47 H17         2.8397   -4.5223    3.0944 H         1 <0>         0.0000
     48 H18         1.5632   -4.1597    1.1033 H         1 <0>         0.0000
     49 H19         2.0302   -5.9089   -0.4605 H         1 <0>         0.0000
     50 H20         3.4166   -3.6640   -2.1662 H         1 <0>         0.0000
     51 H21         3.9461   -2.2621   -1.2168 H         1 <0>         0.0000
     52 H22         2.7104   -2.0660   -2.4747 H         1 <0>         0.0000
     53 H23         6.4461   -5.0754    2.0289 H         1 <0>         0.0000
     54 H24         5.5762   -4.9122    0.4913 H         1 <0>         0.0000
     55 H25         6.0682   -6.5170    1.0663 H         1 <0>         0.0000
     56 H26         5.8160   -8.4300    5.3988 H         1 <0>         0.0000
     57 H27         6.5705   -6.8223    5.1890 H         1 <0>         0.0000
     58 H28         4.0674   -6.2865   -1.2460 H         1 <0>         0.4000
     59 H29         2.8095   -6.0973    4.1136 H         1 <0>         0.4000
@<TRIPOS>BOND
     1    1    2 2
     2    1    3 1
     3    2    5 1
     4    2   16 1
     5    3    6 1
     6    3   24 2
     7    4   17 1
     8    4   21 1
     9    4   25 2
    10    5    7 1
    11    6    8 1
    12    7   12 1
    13    8   16 1
    14    9   10 1
    15    9   13 1
    16   10   17 1
    17   11   15 1
    18   11   18 1
    19   12   13 1
    20   12   14 1
    21   13   18 1
    22   14   15 1
    23   14   16 1
    24   15   27 1
    25   16   19 1
    26   17   18 1
    27   17   28 1
    28   18   20 1
    29   21   29 1
    30   22   30 1
    31   23   30 1
    32   26   30 2
    33   29   30 1
    34    1   31 1
    35    5   32 1
    36    5   33 1
    37    6   34 1
    38    6   35 1
    39    7   36 1
    40    7   37 1
    41    8   38 1
    42    8   39 1
    43    9   40 1
    44    9   41 1
    45   10   42 1
    46   10   43 1
    47   11   44 1
    48   11   45 1
    49   12   46 1
    50   13   47 1
    51   14   48 1
    52   15   49 1
    53   19   50 1
    54   19   51 1
    55   19   52 1
    56   20   53 1
    57   20   54 1
    58   20   55 1
    59   21   56 1
    60   21   57 1
    61   27   58 1
    62   28   59 1
@<TRIPOS>MOLECULE
ZINC01183822_2
   43    46     0     0     0
SMALL
USER_CHARGES

mmff94s_NoEstat = 93.16
@<TRIPOS>ATOM
      1 C1          0.4261   -3.6838   -0.9930 C.ar      1 <0>        -0.1500
      2 C2          2.2346   -5.5150    0.6277 C.ar      1 <0>        -0.1500
      3 C3         -0.3834   -2.8003   -1.7132 C.ar      1 <0>        -0.1500
      4 C4          3.0953   -6.2992    1.4072 C.ar      1 <0>        -0.1500
      5 C5          6.0626   -7.7430    7.1112 C.2       1 <0>        -0.1500
      6 C6          4.9251   -7.2312    6.4423 C.2       1 <0>        -0.1500
      7 C7          0.6132   -0.9466   -0.5531 C.ar      1 <0>        -0.1500
      8 C8          1.3494   -3.2226   -0.0355 C.ar      1 <0>         0.0000
      9 C9          2.2180   -4.1152    0.7417 C.ar      1 <0>         0.0000
     10 C10         1.4266   -1.8338    0.1700 C.ar      1 <0>         0.0862
     11 C11         3.9659   -4.3189    2.4539 C.ar      1 <0>        -0.1435
     12 C12         3.1003   -3.5538    1.6678 C.ar      1 <0>         0.0825
     13 C13        -0.2897   -1.4324   -1.4934 C.ar      1 <0>         0.0825
     14 C14         3.9602   -5.7015    2.3195 C.ar      1 <0>         0.0825
     15 C15         6.7843   -8.4325    6.1648 C.2       1 <0>        -0.0920
     16 C16         5.0329   -7.6442    5.1347 C.2       1 <0>        -0.0400
     17 C17         2.3689   -1.2555    1.1577 C.2       1 <0>         0.6338
     18 C18         8.1035   -9.1635    6.4231 C.2       1 <0>         1.0320
     19 C19         4.8893   -3.6644    3.4294 C.3       1 <0>         0.1435
     20 C20        -1.9804   -1.1416   -3.1404 C.3       1 <0>         0.2800
     21 C21         4.1727   -7.4463    3.9214 C.3       1 <0>         0.4600
     22 O1          8.6265   -9.7444    5.4339 O.co2     1 <0>        -0.9000
     23 O2          2.4508   -0.0496    1.3520 O.2       1 <0>        -0.5700
     24 O3          8.5483   -9.1193    7.6021 O.co2     1 <0>        -0.9000
     25 O4          6.1635   -8.3770    4.9572 O.3       1 <0>        -0.2800
     26 O5          3.1599   -2.1566    1.8574 O.3       1 <0>        -0.2325
     27 O6         -1.0774   -0.5722   -2.1934 O.3       1 <0>        -0.3625
     28 O7          4.7871   -6.4834    3.0669 O.3       1 <0>        -0.3625
     29 H1          0.3108   -4.7431   -1.2049 H         1 <0>         0.1500
     30 H2          1.5824   -6.0363   -0.0673 H         1 <0>         0.1500
     31 H3         -1.0848   -3.1923   -2.4450 H         1 <0>         0.1500
     32 H4          3.0815   -7.3801    1.2928 H         1 <0>         0.1500
     33 H5          6.3190   -7.6212    8.1542 H         1 <0>         0.1500
     34 H6          4.1278   -6.6355    6.8634 H         1 <0>         0.1500
     35 H7          0.6751    0.1271   -0.3913 H         1 <0>         0.1500
     36 H8          4.4016   -3.5663    4.4059 H         1 <0>         0.0000
     37 H9          5.8100   -4.2469    3.5548 H         1 <0>         0.0000
     38 H10         5.1866   -2.6666    3.0845 H         1 <0>         0.0000
     39 H11        -2.5479   -0.3454   -3.6284 H         1 <0>         0.0000
     40 H12        -2.6606   -1.8280   -2.6297 H         1 <0>         0.0000
     41 H13        -1.4079   -1.6909   -3.8917 H         1 <0>         0.0000
     42 H14         4.0497   -8.3853    3.3709 H         1 <0>         0.0000
     43 H15         3.1767   -7.0903    4.2061 H         1 <0>         0.0000
@<TRIPOS>BOND
     1    1    3 ar
     2    1    8 ar
     3    2    4 ar
     4    2    9 ar
     5    3   13 ar
     6    4   14 ar
     7    5    6 1
     8    5   15 2
     9    6   16 2
    10    7   10 ar
    11    7   13 ar
    12    8    9 1
    13    8   10 ar
    14    9   12 ar
    15   10   17 1
    16   11   12 ar
    17   11   14 ar
    18   11   19 1
    19   12   26 1
    20   13   27 1
    21   14   28 1
    22   15   18 1
    23   15   25 1
    24   16   21 1
    25   16   25 1
    26   17   23 2
    27   17   26 1
    28   18   22 1
    29   18   24 2
    30   20   27 1
    31   21   28 1
    32    1   29 1
    33    2   30 1
    34    3   31 1
    35    4   32 1
    36    5   33 1
    37    6   34 1
    38    7   35 1
    39   19   36 1
    40   19   37 1
    41   19   38 1
    42   20   39 1
    43   20   40 1
    44   20   41 1
    45   21   42 1
    46   21   43 1
@<TRIPOS>MOLECULE
ZINC14591952_45
   30    29     0     0     0
SMALL
USER_CHARGES

mmff94s_NoEstat = 15.30
@<TRIPOS>ATOM
      1 C1          3.1460   -5.6801    1.2132 C.3       1 <0>         0.0000
      2 C2          4.4423   -3.8881    2.3847 C.3       1 <0>         0.0000
      3 C3          5.3091   -7.8784    4.4279 C.3       1 <0>         0.0000
      4 C4          5.0217   -6.8239    3.3577 C.3       1 <0>         0.0000
      5 C5          6.5847   -8.6569    4.1093 C.3       1 <0>         0.0000
      6 C6          3.7531   -6.0066    3.6284 C.3       1 <0>         0.0000
      7 C7          6.8564   -9.7380    5.1458 C.3       1 <0>         0.2800
      8 C8          3.3766   -4.9716    2.5514 C.3       1 <0>         0.0000
      9 O1          6.7341  -12.3079    3.8909 O.3       1 <0>        -0.8167
     10 O2          9.1867  -12.3871    3.8806 O.2       1 <0>        -0.8167
     11 O3          8.0079  -10.8574    2.3668 O.2       1 <0>        -0.8167
     12 O4          8.0428  -10.4319    4.7855 O.3       1 <0>        -0.4637
     13 S1          7.9837  -11.5952    3.6289 S.o2      1 <0>         1.6337
     14 H1          4.0577   -6.1859    0.8785 H         1 <0>         0.0000
     15 H2          2.8449   -4.9714    0.4341 H         1 <0>         0.0000
     16 H3          2.3600   -6.4372    1.3045 H         1 <0>         0.0000
     17 H4          5.4086   -4.3212    2.1045 H         1 <0>         0.0000
     18 H5          4.1529   -3.1757    1.6044 H         1 <0>         0.0000
     19 H6          4.5784   -3.3177    3.3085 H         1 <0>         0.0000
     20 H7          4.4630   -8.5727    4.4972 H         1 <0>         0.0000
     21 H8          5.4188   -7.3995    5.4072 H         1 <0>         0.0000
     22 H9          4.8992   -7.3234    2.3882 H         1 <0>         0.0000
     23 H10         5.8845   -6.1570    3.2497 H         1 <0>         0.0000
     24 H11         7.4434   -7.9754    4.0609 H         1 <0>         0.0000
     25 H12         6.5110   -9.1174    3.1159 H         1 <0>         0.0000
     26 H13         3.8729   -5.4905    4.5900 H         1 <0>         0.0000
     27 H14         2.9193   -6.7087    3.7607 H         1 <0>         0.0000
     28 H15         6.0314  -10.4564    5.1864 H         1 <0>         0.0000
     29 H16         6.9971   -9.3003    6.1392 H         1 <0>         0.0000
     30 H17         2.4332   -4.4877    2.8304 H         1 <0>         0.0000
@<TRIPOS>BOND
     1    1    8 1
     2    2    8 1
     3    3    4 1
     4    3    5 1
     5    4    6 1
     6    5    7 1
     7    6    8 1
     8    7   12 1
     9    9   13 1
    10   10   13 2
    11   11   13 2
    12   12   13 1
    13    1   14 1
    14    1   15 1
    15    1   16 1
    16    2   17 1
    17    2   18 1
    18    2   19 1
    19    3   20 1
    20    3   21 1
    21    4   22 1
    22    4   23 1
    23    5   24 1
    24    5   25 1
    25    6   26 1
    26    6   27 1
    27    7   28 1
    28    7   29 1
    29    8   30 1
@<TRIPOS>MOLECULE
ZINC78224296_19
   50    53     0     0     0
SMALL
USER_CHARGES

mmff94s_NoEstat = 106.33
@<TRIPOS>ATOM
      1 C1          5.7423   -7.8040    3.0800 C.ar      1 <0>        -0.1500
      2 C2          6.1897   -8.6982    4.0524 C.ar      1 <0>        -0.1500
      3 C3          5.1975   -7.3219    5.7627 C.ar      1 <0>        -0.1500
      4 C4          5.0068   -6.6584    3.4329 C.ar      1 <0>        -0.1435
      5 C5          4.7318   -6.4190    4.7926 C.ar      1 <0>        -0.1435
      6 C6          5.9160   -8.4576    5.3940 C.ar      1 <0>         0.0825
      7 C7          4.0097   -5.1789    5.2523 C.3       1 <0>         0.1435
      8 C8          3.2011   -4.5101    4.1423 C.3       1 <0>         0.0000
      9 C9          3.4778   -6.3988    1.4310 C.3       1 <0>         0.0000
     10 C10         2.9474   -2.1031    2.0149 C.3       1 <0>         0.0000
     11 C11         2.1796   -1.7539    0.7254 C.3       1 <0>         0.0000
     12 C12         2.9219   -5.4792    0.3285 C.3       1 <0>         0.0000
     13 C13         4.5344   -5.7142    2.3373 C.3       1 <0>         0.1435
     14 C14         4.0678   -4.3374    2.8936 C.3       1 <0>         0.0000
     15 C15         3.4750   -3.5098    1.7499 C.3       1 <0>         0.0000
     16 C16         2.1564   -3.0416   -0.1236 C.3       1 <0>         0.2800
     17 C17         2.3652   -4.1733    0.9099 C.3       1 <0>         0.0000
     18 C18         1.0302   -4.4622    1.6355 C.3       1 <0>         0.0000
     19 O1          8.5017   -9.7914    5.2695 O.3       1 <0>        -0.8167
     20 O2          1.4315   -1.0911   -2.0916 O.3       1 <0>        -0.8167
     21 O3          7.8994  -10.9761    7.3266 O.2       1 <0>        -0.8167
     22 O4          8.4553   -8.5748    7.3944 O.2       1 <0>        -0.8167
     23 O5         -0.3991   -1.1658   -0.4591 O.2       1 <0>        -0.8167
     24 O6         -0.6078   -2.3748   -2.5843 O.2       1 <0>        -0.8167
     25 O7          6.3552   -9.3249    6.3462 O.3       1 <0>        -0.2662
     26 O8          0.9546   -3.1627   -0.8592 O.3       1 <0>        -0.4637
     27 S1          7.9362   -9.6986    6.6155 S.o2      1 <0>         1.6337
     28 S2          0.2882   -1.8339   -1.5633 S.o2      1 <0>         1.6337
     29 H1          5.9757   -8.0059    2.0372 H         1 <0>         0.1500
     30 H2          6.7552   -9.5771    3.7553 H         1 <0>         0.1500
     31 H3          5.0006   -7.1334    6.8160 H         1 <0>         0.1500
     32 H4          3.3312   -5.4264    6.0777 H         1 <0>         0.0000
     33 H5          4.7547   -4.4720    5.6389 H         1 <0>         0.0000
     34 H6          2.3275   -5.1319    3.9416 H         1 <0>         0.0000
     35 H7          2.8358   -3.5443    4.5061 H         1 <0>         0.0000
     36 H8          2.6570   -6.7900    2.0439 H         1 <0>         0.0000
     37 H9          3.9202   -7.2764    0.9424 H         1 <0>         0.0000
     38 H10         3.7589   -1.3929    2.2029 H         1 <0>         0.0000
     39 H11         2.2695   -2.0669    2.8733 H         1 <0>         0.0000
     40 H12         1.1693   -1.3987    0.9590 H         1 <0>         0.0000
     41 H13         2.6802   -0.9489    0.1758 H         1 <0>         0.0000
     42 H14         3.7303   -5.2613   -0.3814 H         1 <0>         0.0000
     43 H15         2.1488   -6.0106   -0.2394 H         1 <0>         0.0000
     44 H16         5.4106   -5.5057    1.7047 H         1 <0>         0.0000
     45 H17         4.9694   -3.7981    3.2248 H         1 <0>         0.0000
     46 H18         4.3345   -3.3596    1.0712 H         1 <0>         0.0000
     47 H19         2.9858   -3.0157   -0.8424 H         1 <0>         0.0000
     48 H20         0.6454   -3.5357    2.0420 H         1 <0>         0.0000
     49 H21         1.2118   -5.1709    2.4332 H         1 <0>         0.0000
     50 H22         0.3275   -4.8759    0.9235 H         1 <0>         0.0000
@<TRIPOS>BOND
     1    1    2 ar
     2    1    4 ar
     3    2    6 ar
     4    3    5 ar
     5    3    6 ar
     6    4    5 ar
     7    4   13 1
     8    5    7 1
     9    6   25 1
    10    7    8 1
    11    8   14 1
    12    9   12 1
    13    9   13 1
    14   10   11 1
    15   10   15 1
    16   11   16 1
    17   12   17 1
    18   13   14 1
    19   14   15 1
    20   15   17 1
    21   16   17 1
    22   16   26 1
    23   17   18 1
    24   19   27 1
    25   20   28 1
    26   21   27 2
    27   22   27 2
    28   23   28 2
    29   24   28 2
    30   25   27 1
    31   26   28 1
    32    1   29 1
    33    2   30 1
    34    3   31 1
    35    7   32 1
    36    7   33 1
    37    8   34 1
    38    8   35 1
    39    9   36 1
    40    9   37 1
    41   10   38 1
    42   10   39 1
    43   11   40 1
    44   11   41 1
    45   12   42 1
    46   12   43 1
    47   13   44 1
    48   14   45 1
    49   15   46 1
    50   16   47 1
    51   18   48 1
    52   18   49 1
    53   18   50 1
@<TRIPOS>MOLECULE
ZINC12289281_28
   59    63     0     0     0
SMALL
USER_CHARGES

mmff94s_NoEstat = 82.54
@<TRIPOS>ATOM
      1 C1          0.6051   -3.5255   -1.3285 C.ar      1 <0>        -0.1500
      2 C2         -0.3502   -2.7265   -1.9571 C.ar      1 <0>        -0.1500
      3 C3          0.3631   -0.8491   -0.6305 C.ar      1 <0>        -0.1500
      4 C4          8.4492   -8.9142    6.2049 C.2       1 <0>        -0.3016
      5 C5          7.1486   -8.5365    5.9763 C.2       1 <0>        -0.0860
      6 C6          1.4456   -3.0052   -0.3265 C.ar      1 <0>        -0.1435
      7 C7          1.3196   -1.6482    0.0179 C.ar      1 <0>        -0.1435
      8 C8         -0.4729   -1.3877   -1.6059 C.ar      1 <0>         0.0825
      9 C9          6.5337   -8.6092    7.2406 C.2       1 <0>         0.1078
     10 C10         4.6633   -6.2729    3.1111 C.2       1 <0>         0.3280
     11 C11         6.5824   -8.1515    4.6725 C.2       1 <0>         0.4760
     12 C12         2.2379   -1.0053    1.0188 C.3       1 <0>         0.1435
     13 C13         4.5249   -5.3596    4.2933 C.3       1 <0>         0.0610
     14 C14         2.8164   -2.0151    1.9995 C.3       1 <0>         0.0000
     15 C15         3.7644   -4.1880    3.6861 C.3       1 <0>         0.0000
     16 C16         1.8495   -5.1067    1.0391 C.3       1 <0>         0.0000
     17 C17         2.8953   -6.1754    1.3643 C.3       1 <0>         0.0000
     18 C18         2.4839   -3.9124    0.3177 C.3       1 <0>         0.1435
     19 C19         3.4802   -3.1869    1.2612 C.3       1 <0>         0.0000
     20 C20         4.2453   -4.1353    2.2228 C.3       1 <0>         0.0000
     21 C21         4.2729   -5.6245    1.7930 C.3       1 <0>         0.0610
     22 C22         5.1319   -8.3097    7.5821 C.3       1 <0>         0.1810
     23 C23         5.3468   -5.8785    0.7311 C.3       1 <0>         0.0000
     24 C24         9.7061   -9.6149    8.2565 C.3       1 <0>         0.2556
     25 N1          7.3745   -9.0024    8.2011 N.2       1 <0>        -0.7068
     26 N2          5.0690   -7.4947    3.2088 N.2       1 <0>        -0.4500
     27 N3          5.3434   -7.8073    4.5344 N.2       1 <0>        -0.4500
     28 N4          8.5310   -9.1802    7.5400 N.pl3     1 <0>         0.3140
     29 O1         -1.4024   -0.6036   -2.2166 O.3       1 <0>        -0.5325
     30 H1          0.6800   -4.5581   -1.6483 H         1 <0>         0.1500
     31 H2         -0.9890   -3.1540   -2.7236 H         1 <0>         0.1500
     32 H3          0.2696    0.2026   -0.3711 H         1 <0>         0.1500
     33 H4          9.3030   -9.0145    5.5484 H         1 <0>         0.1500
     34 H5          7.2698   -8.1704    3.8057 H         1 <0>         0.0600
     35 H6          3.0585   -0.5222    0.4983 H         1 <0>         0.0000
     36 H7          1.6883   -0.2433    1.5560 H         1 <0>         0.0000
     37 H8          3.9782   -5.8350    5.1115 H         1 <0>         0.0000
     38 H9          5.5230   -5.0637    4.6316 H         1 <0>         0.0000
     39 H10         3.5812   -1.5169    2.5852 H         1 <0>         0.0000
     40 H11         2.0528   -2.3639    2.6783 H         1 <0>         0.0000
     41 H12         2.6910   -4.3804    3.7532 H         1 <0>         0.0000
     42 H13         3.9918   -3.2691    4.2300 H         1 <0>         0.0000
     43 H14         1.0900   -5.5477    0.3916 H         1 <0>         0.0000
     44 H15         1.3296   -4.8161    1.9478 H         1 <0>         0.0000
     45 H16         2.4908   -6.8458    2.1467 H         1 <0>         0.0000
     46 H17         3.0188   -6.8326    0.4824 H         1 <0>         0.0000
     47 H18         3.0343   -4.3238   -0.5196 H         1 <0>         0.0000
     48 H19         4.2472   -2.7558    0.6359 H         1 <0>         0.0000
     49 H20         5.2808   -3.7587    2.2717 H         1 <0>         0.0000
     50 H21         4.4984   -9.2086    7.4952 H         1 <0>         0.0000
     51 H22         5.0271   -7.9268    8.6126 H         1 <0>         0.0000
     52 H23         4.7004   -7.5332    6.9257 H         1 <0>         0.0000
     53 H24         5.0535   -5.4091   -0.2050 H         1 <0>         0.0000
     54 H25         5.4615   -6.9488    0.5760 H         1 <0>         0.0000
     55 H26         6.2943   -5.4595    1.0620 H         1 <0>         0.0000
     56 H27        10.2366   -8.7251    8.6057 H         1 <0>         0.0000
     57 H28         9.4064  -10.2384    9.1034 H         1 <0>         0.0000
     58 H29        10.3411  -10.2017    7.5869 H         1 <0>         0.0000
     59 H30        -1.3650    0.3006   -1.8649 H         1 <0>         0.4500
@<TRIPOS>BOND
     1    1    2 ar
     2    1    6 ar
     3    2    8 ar
     4    3    7 ar
     5    3    8 ar
     6    4    5 2
     7    4   28 1
     8    5    9 1
     9    5   11 1
    10    6    7 ar
    11    6   18 1
    12    7   12 1
    13    8   29 1
    14    9   22 1
    15    9   25 2
    16   10   13 1
    17   10   21 1
    18   10   26 2
    19   11   27 2
    20   12   14 1
    21   13   15 1
    22   14   19 1
    23   15   20 1
    24   16   17 1
    25   16   18 1
    26   17   21 1
    27   18   19 1
    28   19   20 1
    29   20   21 1
    30   21   23 1
    31   24   28 1
    32   25   28 1
    33   26   27 1
    34    1   30 1
    35    2   31 1
    36    3   32 1
    37    4   33 1
    38   11   34 1
    39   12   35 1
    40   12   36 1
    41   13   37 1
    42   13   38 1
    43   14   39 1
    44   14   40 1
    45   15   41 1
    46   15   42 1
    47   16   43 1
    48   16   44 1
    49   17   45 1
    50   17   46 1
    51   18   47 1
    52   19   48 1
    53   20   49 1
    54   22   50 1
    55   22   51 1
    56   22   52 1
    57   23   53 1
    58   23   54 1
    59   23   55 1
    60   24   56 1
    61   24   57 1
    62   24   58 1
    63   29   59 1
@<TRIPOS>MOLECULE
ZINC08789094_76
   65    68     0     0     0
SMALL
USER_CHARGES

mmff94s_NoEstat = 93.66
@<TRIPOS>ATOM
      1 C1          0.5683   -0.8471   -0.6463 C.2       1 <0>        -0.1356
      2 C2          1.5953   -1.6278   -0.2706 C.2       1 <0>        -0.2764
      3 C3         -0.4454   -1.3193   -1.6167 C.2       1 <0>         0.4946
      4 C4          4.9773   -7.6233    3.5652 C.2       1 <0>         0.4480
      5 C5          8.6449  -10.8191    6.4187 C.2       1 <0>         0.9060
      6 C6          7.7533   -9.1068    3.9429 C.2       1 <0>         0.6590
      7 C7          2.6704   -1.0562    0.6232 C.3       1 <0>         0.1382
      8 C8         -0.2239   -2.6504   -2.2844 C.3       1 <0>         0.0610
      9 C9          2.9538   -1.9505    1.8233 C.3       1 <0>         0.0000
     10 C10         0.4424   -3.6213   -1.3223 C.3       1 <0>         0.0000
     11 C11         4.6549   -3.8943    3.5803 C.3       1 <0>         0.0000
     12 C12         2.3878   -5.4703    0.1891 C.3       1 <0>         0.0000
     13 C13         4.9707   -5.1991    4.3400 C.3       1 <0>         0.0000
     14 C14         2.7597   -6.3259    1.4136 C.3       1 <0>         0.0000
     15 C15         3.3065   -3.3768    1.3811 C.3       1 <0>         0.0000
     16 C16         2.1421   -3.9761    0.5326 C.3       1 <0>         0.0000
     17 C17         3.5653   -4.2883    2.5869 C.3       1 <0>         0.0000
     18 C18         1.7723   -3.0853   -0.7157 C.3       1 <0>         0.1382
     19 C19         4.2249   -6.3262    3.5911 C.3       1 <0>         0.3410
     20 C20         3.9489   -5.7315    2.1859 C.3       1 <0>         0.0000
     21 C21         2.8707   -3.1281   -1.8022 C.3       1 <0>         0.0000
     22 C22         5.2296   -5.8083    1.3091 C.3       1 <0>         0.0000
     23 C23         5.8863   -7.8947    4.7451 C.3       1 <0>         0.3410
     24 C24         9.2511  -10.8447    5.0101 C.3       1 <0>        -0.1060
     25 C25         8.3149  -10.5094    3.8554 C.3       1 <0>         0.0610
     26 O1          7.7002  -11.6242    6.6423 O.co2     1 <0>        -0.9000
     27 O2         -1.3966   -0.5975   -1.9091 O.2       1 <0>        -0.5700
     28 O3          4.8542   -8.4149    2.6318 O.2       1 <0>        -0.5700
     29 O4          9.1837   -9.9795    7.1967 O.co2     1 <0>        -0.9000
     30 O5          8.2890   -8.1021    3.4958 O.2       1 <0>        -0.5700
     31 O6          3.0078   -6.6188    4.2704 O.3       1 <0>        -0.6800
     32 O7          6.5427   -9.1355    4.5936 O.3       1 <0>        -0.4300
     33 H1          0.4705    0.1766   -0.3007 H         1 <0>         0.1500
     34 H2          3.5886   -0.9276    0.0368 H         1 <0>         0.0000
     35 H3          2.3970   -0.0581    0.9871 H         1 <0>         0.0000
     36 H4         -1.1968   -3.0545   -2.5852 H         1 <0>         0.0000
     37 H5          0.3746   -2.4962   -3.1876 H         1 <0>         0.0000
     38 H6          3.7814   -1.5164    2.3963 H         1 <0>         0.0000
     39 H7          2.0802   -1.9655    2.4878 H         1 <0>         0.0000
     40 H8         -0.2684   -3.8362   -0.5118 H         1 <0>         0.0000
     41 H9          0.6098   -4.5692   -1.8472 H         1 <0>         0.0000
     42 H10         4.3182   -3.1104    4.2666 H         1 <0>         0.0000
     43 H11         5.5503   -3.5230    3.0694 H         1 <0>         0.0000
     44 H12         3.1749   -5.5643   -0.5652 H         1 <0>         0.0000
     45 H13         1.4851   -5.9049   -0.2542 H         1 <0>         0.0000
     46 H14         6.0553   -5.3575    4.3520 H         1 <0>         0.0000
     47 H15         4.6373   -5.1148    5.3806 H         1 <0>         0.0000
     48 H16         1.8749   -6.3948    2.0585 H         1 <0>         0.0000
     49 H17         2.9860   -7.3487    1.0898 H         1 <0>         0.0000
     50 H18         4.2154   -3.3169    0.7732 H         1 <0>         0.0000
     51 H19         1.2578   -3.9686    1.1912 H         1 <0>         0.0000
     52 H20         2.6248   -4.3210    3.1612 H         1 <0>         0.0000
     53 H21         3.0051   -4.1528   -2.1250 H         1 <0>         0.0000
     54 H22         3.7936   -2.7473   -1.3832 H         1 <0>         0.0000
     55 H23         2.5615   -2.5134   -2.6382 H         1 <0>         0.0000
     56 H24         6.0525   -5.3870    1.8676 H         1 <0>         0.0000
     57 H25         5.0594   -5.2436    0.4045 H         1 <0>         0.0000
     58 H26         5.4232   -6.8449    1.0761 H         1 <0>         0.0000
     59 H27         5.3001   -7.9092    5.6680 H         1 <0>         0.0000
     60 H28         6.6429   -7.1076    4.8005 H         1 <0>         0.0000
     61 H29         9.6379  -11.8601    4.8571 H         1 <0>         0.0000
     62 H30        10.1148  -10.1678    4.9982 H         1 <0>         0.0000
     63 H31         7.4811  -11.2194    3.8224 H         1 <0>         0.0000
     64 H32         8.8729  -10.5811    2.9147 H         1 <0>         0.0000
     65 H33         2.5593   -7.3047    3.7516 H         1 <0>         0.4000
@<TRIPOS>BOND
     1    1    2 2
     2    1    3 1
     3    2    7 1
     4    2   18 1
     5    3    8 1
     6    3   27 2
     7    4   19 1
     8    4   23 1
     9    4   28 2
    10    5   24 1
    11    5   26 1
    12    5   29 2
    13    6   25 1
    14    6   30 2
    15    6   32 1
    16    7    9 1
    17    8   10 1
    18    9   15 1
    19   10   18 1
    20   11   13 1
    21   11   17 1
    22   12   14 1
    23   12   16 1
    24   13   19 1
    25   14   20 1
    26   15   16 1
    27   15   17 1
    28   16   18 1
    29   17   20 1
    30   18   21 1
    31   19   20 1
    32   19   31 1
    33   20   22 1
    34   23   32 1
    35   24   25 1
    36    1   33 1
    37    7   34 1
    38    7   35 1
    39    8   36 1
    40    8   37 1
    41    9   38 1
    42    9   39 1
    43   10   40 1
    44   10   41 1
    45   11   42 1
    46   11   43 1
    47   12   44 1
    48   12   45 1
    49   13   46 1
    50   13   47 1
    51   14   48 1
    52   14   49 1
    53   15   50 1
    54   16   51 1
    55   17   52 1
    56   21   53 1
    57   21   54 1
    58   21   55 1
    59   22   56 1
    60   22   57 1
    61   22   58 1
    62   23   59 1
    63   23   60 1
    64   24   61 1
    65   24   62 1
    66   25   63 1
    67   25   64 1
    68   31   65 1
@<TRIPOS>MOLECULE
ZINC03876071_1
   60    63     0     0     0
SMALL
USER_CHARGES

mmff94s_NoEstat = 117.60
@<TRIPOS>ATOM
      1 C1          0.0013   -3.5324   -1.7551 C.2       1 <0>        -0.1356
      2 C2          0.3845   -1.4455   -0.3828 C.2       1 <0>        -0.1356
      3 C3          1.2285   -3.9519   -1.4320 C.2       1 <0>        -0.2882
      4 C4          1.6154   -1.8729   -0.0607 C.2       1 <0>        -0.2764
      5 C5         -0.5009   -2.2375   -1.2607 C.2       1 <0>         0.5412
      6 C6          5.5711   -7.1366    4.2222 C.2       1 <0>         0.4480
      7 C7          2.4730   -1.0718    0.8851 C.3       1 <0>         0.1382
      8 C8          2.8475   -1.9111    2.1008 C.3       1 <0>         0.0000
      9 C9          4.5725   -3.5140    4.1046 C.3       1 <0>         0.0000
     10 C10         3.5531   -6.2468    1.7045 C.3       1 <0>         0.0000
     11 C11         3.5047   -3.2471    1.7073 C.3       1 <0>         0.0000
     12 C12         3.7571   -4.1069    2.9558 C.3       1 <0>         0.0000
     13 C13         5.0445   -4.7439    4.9251 C.3       1 <0>         0.0000
     14 C14         3.1671   -5.4733    0.4227 C.3       1 <0>         0.2800
     15 C15         2.2191   -3.1900   -0.5630 C.3       1 <0>         0.2764
     16 C16         4.6081   -5.9921    4.0997 C.3       1 <0>         0.3410
     17 C17         4.4698   -5.4421    2.6492 C.3       1 <0>         0.0000
     18 C18         2.6033   -4.0486    0.7063 C.3       1 <0>         0.3400
     19 C19         4.5212   -4.6962    6.3578 C.3       1 <0>         0.0000
     20 C20         3.4169   -2.8469   -1.4781 C.3       1 <0>         0.0000
     21 C21         5.8765   -5.2566    2.0148 C.3       1 <0>         0.0000
     22 C22         6.3303   -7.2372    5.5281 C.3       1 <0>         0.3410
     23 O1          8.9375   -9.8887    6.4548 O.3       1 <0>        -1.0333
     24 O2          7.1412   -8.8774    7.9707 O.3       1 <0>        -1.0333
     25 O3         -1.6189   -1.8345   -1.5631 O.2       1 <0>        -0.5700
     26 O4          5.7261   -7.9422    3.3055 O.2       1 <0>        -0.5700
     27 O5          8.9954   -7.3908    7.0072 O.2       1 <0>        -1.0333
     28 O6          4.2734   -5.4317   -0.4649 O.3       1 <0>        -0.6800
     29 O7          3.3665   -6.5198    4.5542 O.3       1 <0>        -0.6800
     30 O8          7.2079   -8.3431    5.5107 O.3       1 <0>        -0.5512
     31 F1          1.4109   -4.2758    1.3763 F         1 <0>        -0.3400
     32 P1          8.1427   -8.6455    6.8431 P.3       1 <0>         1.3712
     33 H1         -0.6471   -4.1228   -2.3918 H         1 <0>         0.1500
     34 H2         -0.0149   -0.5122    0.0000 H         1 <0>         0.1500
     35 H3          1.5523   -4.9040   -1.8469 H         1 <0>         0.1500
     36 H4          3.3774   -0.7300    0.3690 H         1 <0>         0.0000
     37 H5          1.9557   -0.1666    1.2258 H         1 <0>         0.0000
     38 H6          3.5300   -1.3282    2.7305 H         1 <0>         0.0000
     39 H7          1.9486   -2.1002    2.7025 H         1 <0>         0.0000
     40 H8          5.4399   -2.9608    3.7256 H         1 <0>         0.0000
     41 H9          3.9752   -2.8160    4.7011 H         1 <0>         0.0000
     42 H10         2.6216   -6.5110    2.2200 H         1 <0>         0.0000
     43 H11         4.0430   -7.1914    1.4375 H         1 <0>         0.0000
     44 H12         4.4611   -3.0104    1.2301 H         1 <0>         0.0000
     45 H13         2.7650   -4.3310    3.3807 H         1 <0>         0.0000
     46 H14         6.1407   -4.7033    4.9810 H         1 <0>         0.0000
     47 H15         2.3883   -6.0668   -0.0699 H         1 <0>         0.0000
     48 H16         3.4327   -4.7340    6.3561 H         1 <0>         0.0000
     49 H17         4.8442   -3.7743    6.8395 H         1 <0>         0.0000
     50 H18         4.9057   -5.5456    6.9210 H         1 <0>         0.0000
     51 H19         4.1531   -2.3011   -0.9020 H         1 <0>         0.0000
     52 H20         3.0653   -2.2389   -2.3021 H         1 <0>         0.0000
     53 H21         3.8466   -3.7673   -1.8528 H         1 <0>         0.0000
     54 H22         6.4893   -4.6911    2.7010 H         1 <0>         0.0000
     55 H23         5.7636   -4.7234    1.0824 H         1 <0>         0.0000
     56 H24         6.3053   -6.2326    1.8420 H         1 <0>         0.0000
     57 H25         5.6266   -7.3507    6.3573 H         1 <0>         0.0000
     58 H26         6.9217   -6.3285    5.6674 H         1 <0>         0.0000
     59 H27         4.5003   -6.3523   -0.6766 H         1 <0>         0.4000
     60 H28         3.1499   -7.2632    3.9697 H         1 <0>         0.4000
@<TRIPOS>BOND
     1    1    3 2
     2    1    5 1
     3    2    4 2
     4    2    5 1
     5    3   15 1
     6    4    7 1
     7    4   15 1
     8    5   25 2
     9    6   16 1
    10    6   22 1
    11    6   26 2
    12    7    8 1
    13    8   11 1
    14    9   12 1
    15    9   13 1
    16   10   14 1
    17   10   17 1
    18   11   12 1
    19   11   18 1
    20   12   17 1
    21   13   16 1
    22   13   19 1
    23   14   18 1
    24   14   28 1
    25   15   18 1
    26   15   20 1
    27   16   17 1
    28   16   29 1
    29   17   21 1
    30   18   31 1
    31   22   30 1
    32   23   32 1
    33   24   32 1
    34   27   32 2
    35   30   32 1
    36    1   33 1
    37    2   34 1
    38    3   35 1
    39    7   36 1
    40    7   37 1
    41    8   38 1
    42    8   39 1
    43    9   40 1
    44    9   41 1
    45   10   42 1
    46   10   43 1
    47   11   44 1
    48   12   45 1
    49   13   46 1
    50   14   47 1
    51   19   48 1
    52   19   49 1
    53   19   50 1
    54   20   51 1
    55   20   52 1
    56   20   53 1
    57   21   54 1
    58   21   55 1
    59   21   56 1
    60   22   57 1
    61   22   58 1
    62   28   59 1
    63   29   60 1
@<TRIPOS>MOLECULE
ZINC71770953_75
   60    63     0     0     0
SMALL
USER_CHARGES

mmff94s_NoEstat = 122.67
@<TRIPOS>ATOM
      1 C1          0.3865   -3.6585   -1.2336 C.ar      1 <0>        -0.1500
      2 C2         -0.3510   -2.7235   -1.9593 C.ar      1 <0>        -0.1500
      3 C3          0.6437   -0.9367   -0.6741 C.ar      1 <0>        -0.1500
      4 C4          1.2522   -3.2391   -0.2151 C.ar      1 <0>        -0.1435
      5 C5          1.3773   -1.8694    0.0684 C.ar      1 <0>        -0.1435
      6 C6         -0.2229   -1.3645   -1.6797 C.ar      1 <0>         0.0825
      7 C7         10.7611   -7.3614    4.6713 C.2       1 <0>         0.9060
      8 C8          7.0269   -7.3099    3.4311 C.2       1 <0>         0.6590
      9 C9          2.3596   -1.4262    1.1141 C.3       1 <0>         0.1435
     10 C10         2.3635   -2.3330    2.3463 C.3       1 <0>         0.0000
     11 C11         3.4404   -4.4960   -0.0926 C.3       1 <0>         0.0000
     12 C12         3.3554   -4.6519    4.2892 C.3       1 <0>         0.0000
     13 C13         4.5943   -5.5340    4.5346 C.3       1 <0>         0.0000
     14 C14         4.3425   -5.4346    0.7266 C.3       1 <0>         0.0000
     15 C15         2.0685   -4.2402    0.5720 C.3       1 <0>         0.1435
     16 C16         2.1449   -3.8359    2.0724 C.3       1 <0>         0.0000
     17 C17         3.0928   -4.8018    2.7936 C.3       1 <0>         0.0000
     18 C18         5.0785   -5.9973    3.1459 C.3       1 <0>         0.2800
     19 C19         4.4985   -4.9456    2.1747 C.3       1 <0>         0.0000
     20 C20         6.7237   -3.9473    1.6308 C.3       1 <0>         0.0000
     21 C21        -1.8233   -0.9612   -3.3924 C.3       1 <0>         0.2800
     22 C22         9.2302   -7.4541    4.6668 C.3       1 <0>        -0.1060
     23 C23         8.5351   -7.2416    3.3273 C.3       1 <0>         0.0610
     24 C24         5.3749   -3.6728    2.1919 C.3       1 <0>         0.0000
     25 O1         11.2618   -6.2584    4.3205 O.co2     1 <0>        -0.9000
     26 O2         11.3407   -8.4241    5.0391 O.co2     1 <0>        -0.9000
     27 O3          6.3860   -8.2932    3.7758 O.2       1 <0>        -0.5700
     28 O4         -0.9504   -0.4542   -2.3838 O.3       1 <0>        -0.3625
     29 O5          6.4885   -6.0936    3.0877 O.3       1 <0>        -0.4300
     30 H1          0.2757   -4.7103   -1.4683 H         1 <0>         0.1500
     31 H2         -1.0288   -3.0608   -2.7394 H         1 <0>         0.1500
     32 H3          0.7416    0.1240   -0.4687 H         1 <0>         0.1500
     33 H4          3.3720   -1.4061    0.6952 H         1 <0>         0.0000
     34 H5          2.1053   -0.4035    1.4162 H         1 <0>         0.0000
     35 H6          3.3281   -2.1670    2.8792 H         1 <0>         0.0000
     36 H7          1.5905   -1.9545    3.0605 H         1 <0>         0.0000
     37 H8          3.9533   -3.5458   -0.2744 H         1 <0>         0.0000
     38 H9          3.2985   -4.9480   -1.0809 H         1 <0>         0.0000
     39 H10         2.5007   -4.9856    4.8875 H         1 <0>         0.0000
     40 H11         3.5729   -3.6168    4.5725 H         1 <0>         0.0000
     41 H12         5.3688   -4.9746    5.0733 H         1 <0>         0.0000
     42 H13         4.3420   -6.4020    5.1551 H         1 <0>         0.0000
     43 H14         3.9008   -6.4392    0.7150 H         1 <0>         0.0000
     44 H15         5.3217   -5.5226    0.2416 H         1 <0>         0.0000
     45 H16         1.5077   -5.1870    0.5441 H         1 <0>         0.0000
     46 H17         1.1354   -4.0630    2.5168 H         1 <0>         0.0000
     47 H18         2.5989   -5.7767    2.6852 H         1 <0>         0.0000
     48 H19         4.6683   -6.9920    2.9315 H         1 <0>         0.0000
     49 H20         7.2094   -4.7218    2.2362 H         1 <0>         0.0000
     50 H21         7.3538   -3.0519    1.6560 H         1 <0>         0.0000
     51 H22         6.6579   -4.3130    0.6007 H         1 <0>         0.0000
     52 H23        -2.3427   -0.1307   -3.8768 H         1 <0>         0.0000
     53 H24        -2.5472   -1.6434   -2.9397 H         1 <0>         0.0000
     54 H25        -1.2319   -1.5012   -4.1357 H         1 <0>         0.0000
     55 H26         8.8709   -6.6893    5.3670 H         1 <0>         0.0000
     56 H27         8.9462   -8.4285    5.0835 H         1 <0>         0.0000
     57 H28         8.8706   -7.9902    2.6011 H         1 <0>         0.0000
     58 H29         8.7930   -6.2461    2.9484 H         1 <0>         0.0000
     59 H30         4.8695   -2.9068    1.6095 H         1 <0>         0.0000
     60 H31         5.4535   -3.3307    3.2206 H         1 <0>         0.0000
@<TRIPOS>BOND
     1    1    2 ar
     2    1    4 ar
     3    2    6 ar
     4    3    5 ar
     5    3    6 ar
     6    4    5 ar
     7    4   15 1
     8    5    9 1
     9    6   28 1
    10    7   22 1
    11    7   25 1
    12    7   26 2
    13    8   23 1
    14    8   27 2
    15    8   29 1
    16    9   10 1
    17   10   16 1
    18   11   14 1
    19   11   15 1
    20   12   13 1
    21   12   17 1
    22   13   18 1
    23   14   19 1
    24   15   16 1
    25   16   17 1
    26   17   19 1
    27   18   19 1
    28   18   29 1
    29   19   24 1
    30   20   24 1
    31   21   28 1
    32   22   23 1
    33    1   30 1
    34    2   31 1
    35    3   32 1
    36    9   33 1
    37    9   34 1
    38   10   35 1
    39   10   36 1
    40   11   37 1
    41   11   38 1
    42   12   39 1
    43   12   40 1
    44   13   41 1
    45   13   42 1
    46   14   43 1
    47   14   44 1
    48   15   45 1
    49   16   46 1
    50   17   47 1
    51   18   48 1
    52   20   49 1
    53   20   50 1
    54   20   51 1
    55   21   52 1
    56   21   53 1
    57   21   54 1
    58   22   55 1
    59   22   56 1
    60   23   57 1
    61   23   58 1
    62   24   59 1
    63   24   60 1
@<TRIPOS>MOLECULE
ZINC08788913_193
   64    67     0     0     0
SMALL
USER_CHARGES

mmff94s_NoEstat = 85.87
@<TRIPOS>ATOM
      1 C1          0.5764   -0.9478   -0.6837 C.2       1 <0>        -0.1356
      2 C2          1.6224   -1.6807   -0.2667 C.2       1 <0>        -0.2764
      3 C3         -0.4252   -1.4982   -1.6251 C.2       1 <0>         0.4946
      4 C4          5.1048   -7.3616    3.9220 C.2       1 <0>         0.4480
      5 C5          7.4311  -11.3109    8.1198 C.2       1 <0>         0.9060
      6 C6          6.1302   -9.7651    5.7167 C.2       1 <0>         0.6590
      7 C7          2.6830   -1.0339    0.5927 C.3       1 <0>         0.1382
      8 C8         -0.1698   -2.8578   -2.2191 C.3       1 <0>         0.0610
      9 C9          2.9881   -1.8521    1.8409 C.3       1 <0>         0.0000
     10 C10         0.5193   -3.7573   -1.2052 C.3       1 <0>         0.0000
     11 C11         5.0135   -4.9177    4.5575 C.3       1 <0>         0.0000
     12 C12         4.7165   -3.6625    3.7171 C.3       1 <0>         0.0000
     13 C13         2.5036   -5.4724    0.4084 C.3       1 <0>         0.0000
     14 C14         2.8999   -6.2504    1.6761 C.3       1 <0>         0.0000
     15 C15         4.3123   -6.0937    3.8462 C.3       1 <0>         0.0610
     16 C16         3.3736   -3.2922    1.4799 C.3       1 <0>         0.0000
     17 C17         2.2240   -3.9662    0.6668 C.3       1 <0>         0.0000
     18 C18         3.6478   -4.1286    2.7339 C.3       1 <0>         0.0000
     19 C19         1.8348   -3.1561   -0.6296 C.3       1 <0>         0.1382
     20 C20         4.0675   -5.5784    2.4106 C.3       1 <0>         0.0000
     21 C21         2.9356   -3.2332   -1.7119 C.3       1 <0>         0.0000
     22 C22         5.3564   -5.6835    1.5540 C.3       1 <0>         0.0000
     23 C23         4.4379   -8.5284    4.6189 C.3       1 <0>         0.3410
     24 C24         7.9933  -11.1667    6.7002 C.3       1 <0>        -0.1060
     25 C25         6.9784  -11.0103    5.5741 C.3       1 <0>         0.0610
     26 O1          6.6878  -12.3069    8.3350 O.co2     1 <0>        -0.9000
     27 O2         -1.3945   -0.8179   -1.9551 O.2       1 <0>        -0.5700
     28 O3          6.2342   -7.4390    3.4406 O.2       1 <0>        -0.5700
     29 O4          7.7956  -10.3962    8.9141 O.co2     1 <0>        -0.9000
     30 O5          6.1880   -8.9735    6.6476 O.2       1 <0>        -0.5700
     31 O6          5.2906   -9.6536    4.6340 O.3       1 <0>        -0.4300
     32 H1          0.4530    0.0908   -0.3951 H         1 <0>         0.1500
     33 H2          3.5979   -0.9160   -0.0010 H         1 <0>         0.0000
     34 H3          2.3854   -0.0238    0.9002 H         1 <0>         0.0000
     35 H4         -1.1320   -3.3020   -2.4973 H         1 <0>         0.0000
     36 H5          0.4258   -2.7383   -3.1295 H         1 <0>         0.0000
     37 H6          3.8056   -1.3674    2.3872 H         1 <0>         0.0000
     38 H7          2.1152   -1.8497    2.5067 H         1 <0>         0.0000
     39 H8         -0.1868   -3.9447   -0.3840 H         1 <0>         0.0000
     40 H9          0.7106   -4.7284   -1.6771 H         1 <0>         0.0000
     41 H10         6.0952   -5.0627    4.6559 H         1 <0>         0.0000
     42 H11         4.6125   -4.8035    5.5713 H         1 <0>         0.0000
     43 H12         4.3667   -2.8382    4.3467 H         1 <0>         0.0000
     44 H13         5.6202   -3.3236    3.1988 H         1 <0>         0.0000
     45 H14         3.2919   -5.5892   -0.3416 H         1 <0>         0.0000
     46 H15         1.6107   -5.9522   -0.0073 H         1 <0>         0.0000
     47 H16         2.0242   -6.3106    2.3353 H         1 <0>         0.0000
     48 H17         3.1555   -7.2827    1.4083 H         1 <0>         0.0000
     49 H18         3.3530   -6.2894    4.3436 H         1 <0>         0.0000
     50 H19         4.2824   -3.2476    0.8702 H         1 <0>         0.0000
     51 H20         1.3393   -3.9418    1.3241 H         1 <0>         0.0000
     52 H21         2.7039   -4.1599    3.3041 H         1 <0>         0.0000
     53 H22         3.0950   -4.2707   -1.9770 H         1 <0>         0.0000
     54 H23         3.8485   -2.8075   -1.3146 H         1 <0>         0.0000
     55 H24         2.6129   -2.6737   -2.5810 H         1 <0>         0.0000
     56 H25         6.1657   -5.2054    2.0877 H         1 <0>         0.0000
     57 H26         5.1848   -5.1866    0.6096 H         1 <0>         0.0000
     58 H27         5.5795   -6.7289    1.3928 H         1 <0>         0.0000
     59 H28         3.5105   -8.7878    4.1009 H         1 <0>         0.0000
     60 H29         4.2174   -8.2475    5.6522 H         1 <0>         0.0000
     61 H30         8.5858  -12.0700    6.5077 H         1 <0>         0.0000
     62 H31         8.6904  -10.3192    6.6939 H         1 <0>         0.0000
     63 H32         6.3165  -11.8824    5.5340 H         1 <0>         0.0000
     64 H33         7.5151  -10.9342    4.6216 H         1 <0>         0.0000
@<TRIPOS>BOND
     1    1    2 2
     2    1    3 1
     3    2    7 1
     4    2   19 1
     5    3    8 1
     6    3   27 2
     7    4   15 1
     8    4   23 1
     9    4   28 2
    10    5   24 1
    11    5   26 1
    12    5   29 2
    13    6   25 1
    14    6   30 2
    15    6   31 1
    16    7    9 1
    17    8   10 1
    18    9   16 1
    19   10   19 1
    20   11   12 1
    21   11   15 1
    22   12   18 1
    23   13   14 1
    24   13   17 1
    25   14   20 1
    26   15   20 1
    27   16   17 1
    28   16   18 1
    29   17   19 1
    30   18   20 1
    31   19   21 1
    32   20   22 1
    33   23   31 1
    34   24   25 1
    35    1   32 1
    36    7   33 1
    37    7   34 1
    38    8   35 1
    39    8   36 1
    40    9   37 1
    41    9   38 1
    42   10   39 1
    43   10   40 1
    44   11   41 1
    45   11   42 1
    46   12   43 1
    47   12   44 1
    48   13   45 1
    49   13   46 1
    50   14   47 1
    51   14   48 1
    52   15   49 1
    53   16   50 1
    54   17   51 1
    55   18   52 1
    56   21   53 1
    57   21   54 1
    58   21   55 1
    59   22   56 1
    60   22   57 1
    61   22   58 1
    62   23   59 1
    63   23   60 1
    64   24   61 1
    65   24   62 1
    66   25   63 1
    67   25   64 1
@<TRIPOS>MOLECULE
ZINC12494532_13
   69    72     0     0     0
SMALL
USER_CHARGES

mmff94s_NoEstat = 113.64
@<TRIPOS>ATOM
      1 C1         -0.5124   -1.8774   -1.0372 C.2       1 <0>         0.9060
      2 C2          5.8153   -8.9297    3.3439 C.3       1 <0>         0.0000
      3 C3          4.6653   -8.1145    2.7598 C.3       1 <0>         0.0000
      4 C4          3.1618   -5.9920    1.0523 C.3       1 <0>         0.0000
      5 C5          5.1653   -4.7476    4.7386 C.3       1 <0>         0.0000
      6 C6          2.2961   -4.7463    0.7866 C.3       1 <0>         0.0000
      7 C7          5.3575   -7.4399    7.4559 C.3       1 <0>         0.0000
      8 C8          3.9893   -3.9694    4.1201 C.3       1 <0>         0.0000
      9 C9          6.4852   -6.8618    6.6104 C.3       1 <0>         0.0000
     10 C10         4.9737   -9.2157    5.7086 C.3       1 <0>         0.0000
     11 C11         6.0893   -8.6183    4.8247 C.3       1 <0>         0.0000
     12 C12         4.8549   -6.6080    2.9780 C.3       1 <0>         0.0000
     13 C13         3.6365   -5.8153    2.4916 C.3       1 <0>         0.0000
     14 C14         5.0966   -6.2785    4.4869 C.3       1 <0>         0.0000
     15 C15         2.4754   -3.8235    2.0147 C.3       1 <0>         0.0000
     16 C16         5.1910   -8.9308    7.1915 C.3       1 <0>         0.2800
     17 C17         6.3103   -7.0886    5.0799 C.3       1 <0>         0.0000
     18 C18         3.8186   -4.2883    2.6289 C.3       1 <0>         0.0000
     19 C19         7.6462   -6.6479    4.4263 C.3       1 <0>         0.0000
     20 C20         5.0209   -3.7196    1.8344 C.3       1 <0>         0.0000
     21 C21         2.6233   -1.4927    2.9135 C.3       1 <0>         0.0000
     22 C22         0.8281   -2.2794   -0.4156 C.3       1 <0>        -0.1060
     23 C23         0.9823   -1.9782    1.0741 C.3       1 <0>         0.0000
     24 C24         2.3604   -2.3463    1.6667 C.3       1 <0>         0.0000
     25 O1         -0.6895   -2.2149   -2.2404 O.co2     1 <0>        -0.9000
     26 O2          5.5395  -10.3874    9.6302 O.3       1 <0>        -0.8167
     27 O3         -1.2772   -1.2347   -0.2624 O.co2     1 <0>        -0.9000
     28 O4          3.1061  -10.6672    9.7771 O.2       1 <0>        -0.8167
     29 O5          4.1084   -8.4634   10.1774 O.2       1 <0>        -0.8167
     30 O6          4.0686   -9.4221    7.9170 O.3       1 <0>        -0.4637
     31 S1          4.2234   -9.7614    9.5141 S.o2      1 <0>         1.6337
     32 H1          5.5989   -9.9979    3.2201 H         1 <0>         0.0000
     33 H2          6.7214   -8.7393    2.7561 H         1 <0>         0.0000
     34 H3          4.5969   -8.3298    1.6867 H         1 <0>         0.0000
     35 H4          3.7159   -8.4423    3.1991 H         1 <0>         0.0000
     36 H5          2.5833   -6.9121    0.9218 H         1 <0>         0.0000
     37 H6          4.0042   -6.0282    0.3526 H         1 <0>         0.0000
     38 H7          6.1053   -4.3387    4.3555 H         1 <0>         0.0000
     39 H8          5.1572   -4.5462    5.8153 H         1 <0>         0.0000
     40 H9          2.6158   -4.2625   -0.1432 H         1 <0>         0.0000
     41 H10         1.2419   -5.0194    0.6662 H         1 <0>         0.0000
     42 H11         5.5733   -7.2794    8.5194 H         1 <0>         0.0000
     43 H12         4.4157   -6.9108    7.2688 H         1 <0>         0.0000
     44 H13         3.0741   -4.2295    4.6679 H         1 <0>         0.0000
     45 H14         4.1427   -2.8940    4.2707 H         1 <0>         0.0000
     46 H15         6.6045   -5.7977    6.8404 H         1 <0>         0.0000
     47 H16         7.4224   -7.3352    6.9365 H         1 <0>         0.0000
     48 H17         3.9854   -8.8434    5.4144 H         1 <0>         0.0000
     49 H18         4.9232  -10.3024    5.5597 H         1 <0>         0.0000
     50 H19         7.0148   -9.1467    5.0967 H         1 <0>         0.0000
     51 H20         5.7278   -6.3057    2.3909 H         1 <0>         0.0000
     52 H21         2.7892   -6.1222    3.1280 H         1 <0>         0.0000
     53 H22         4.1933   -6.6110    5.0171 H         1 <0>         0.0000
     54 H23         1.6663   -4.0523    2.7239 H         1 <0>         0.0000
     55 H24         6.0767   -9.4750    7.5406 H         1 <0>         0.0000
     56 H25         7.5704   -6.7886    3.3573 H         1 <0>         0.0000
     57 H26         8.4444   -7.2555    4.8287 H         1 <0>         0.0000
     58 H27         7.8156   -5.6054    4.6563 H         1 <0>         0.0000
     59 H28         4.8860   -3.9522    0.7869 H         1 <0>         0.0000
     60 H29         5.9287   -4.1762    2.2046 H         1 <0>         0.0000
     61 H30         5.0560   -2.6481    1.9778 H         1 <0>         0.0000
     62 H31         1.8768   -1.6898    3.6903 H         1 <0>         0.0000
     63 H32         2.5750   -0.4260    2.6695 H         1 <0>         0.0000
     64 H33         3.6135   -1.6999    3.3335 H         1 <0>         0.0000
     65 H34         1.6481   -1.8222   -0.9809 H         1 <0>         0.0000
     66 H35         0.9240   -3.3630   -0.5619 H         1 <0>         0.0000
     67 H36         0.2000   -2.5230    1.6184 H         1 <0>         0.0000
     68 H37         0.7871   -0.9119    1.2460 H         1 <0>         0.0000
     69 H38         3.1407   -2.0998    0.9333 H         1 <0>         0.0000
@<TRIPOS>BOND
     1    1   22 1
     2    1   25 1
     3    1   27 2
     4    2    3 1
     5    2   11 1
     6    3   12 1
     7    4    6 1
     8    4   13 1
     9    5    8 1
    10    5   14 1
    11    6   15 1
    12    7    9 1
    13    7   16 1
    14    8   18 1
    15    9   17 1
    16   10   11 1
    17   10   16 1
    18   11   17 1
    19   12   13 1
    20   12   14 1
    21   13   18 1
    22   14   17 1
    23   15   18 1
    24   15   24 1
    25   16   30 1
    26   17   19 1
    27   18   20 1
    28   21   24 1
    29   22   23 1
    30   23   24 1
    31   26   31 1
    32   28   31 2
    33   29   31 2
    34   30   31 1
    35    2   32 1
    36    2   33 1
    37    3   34 1
    38    3   35 1
    39    4   36 1
    40    4   37 1
    41    5   38 1
    42    5   39 1
    43    6   40 1
    44    6   41 1
    45    7   42 1
    46    7   43 1
    47    8   44 1
    48    8   45 1
    49    9   46 1
    50    9   47 1
    51   10   48 1
    52   10   49 1
    53   11   50 1
    54   12   51 1
    55   13   52 1
    56   14   53 1
    57   15   54 1
    58   16   55 1
    59   19   56 1
    60   19   57 1
    61   19   58 1
    62   20   59 1
    63   20   60 1
    64   20   61 1
    65   21   62 1
    66   21   63 1
    67   21   64 1
    68   22   65 1
    69   22   66 1
    70   23   67 1
    71   23   68 1
    72   24   69 1
@<TRIPOS>MOLECULE
ZINC03882049_7
   60    63     0     0     0
SMALL
USER_CHARGES

mmff94s_NoEstat = 117.51
@<TRIPOS>ATOM
      1 C1          0.0505   -3.3590   -1.8522 C.2       1 <0>        -0.1356
      2 C2          0.4980   -1.3219   -0.4344 C.2       1 <0>        -0.1356
      3 C3          1.2486   -3.8409   -1.5072 C.2       1 <0>        -0.2882
      4 C4          1.6999   -1.8122   -0.0912 C.2       1 <0>        -0.2764
      5 C5         -0.4125   -2.0630   -1.3287 C.2       1 <0>         0.5412
      6 C6          5.5324   -7.1527    4.2263 C.2       1 <0>         0.4480
      7 C7          2.5626   -1.0497    0.8806 C.3       1 <0>         0.1382
      8 C8          2.8532   -1.9048    2.1068 C.3       1 <0>         0.0000
      9 C9          4.5437   -3.5329    4.1151 C.3       1 <0>         0.0000
     10 C10         3.4818   -6.2467    1.7284 C.3       1 <0>         0.0000
     11 C11         3.4758   -3.2569    1.7226 C.3       1 <0>         0.0000
     12 C12         3.7144   -4.1183    2.9710 C.3       1 <0>         0.0000
     13 C13         5.0406   -4.7651    4.9158 C.3       1 <0>         0.0000
     14 C14         3.1391   -5.4663    0.4418 C.3       1 <0>         0.2800
     15 C15         2.2455   -3.1641   -0.5759 C.3       1 <0>         0.2764
     16 C16         4.5734   -6.0083    4.1038 C.3       1 <0>         0.3410
     17 C17         4.4139   -5.4590    2.6583 C.3       1 <0>         0.0000
     18 C18         2.5652   -4.0387    0.7059 C.3       1 <0>         0.3400
     19 C19         4.5737   -4.7313    6.3679 C.3       1 <0>         0.0000
     20 C20         3.5086   -2.9213   -1.4354 C.3       1 <0>         0.0000
     21 C21         5.8021   -5.2892    1.9811 C.3       1 <0>         0.0000
     22 C22         6.3075   -7.2420    5.5237 C.3       1 <0>         0.3410
     23 O1          8.9174   -9.8924    6.4462 O.3       1 <0>        -1.0333
     24 O2          7.1433   -8.8589    7.9734 O.3       1 <0>        -1.0333
     25 O3         -1.5134   -1.6139   -1.6282 O.2       1 <0>        -0.5700
     26 O4          5.6734   -7.9685    3.3164 O.2       1 <0>        -0.5700
     27 O5          8.9902   -7.3890    6.9712 O.2       1 <0>        -1.0333
     28 O6          2.2107   -6.2758   -0.2776 O.3       1 <0>        -0.6800
     29 O7          3.3690   -6.5737    4.6072 O.3       1 <0>        -0.6800
     30 O8          7.1811   -8.3510    5.5072 O.3       1 <0>        -0.5512
     31 F1          1.3589   -4.2386    1.3486 F         1 <0>        -0.3400
     32 P1          8.1314   -8.6424    6.8311 P.3       1 <0>         1.3712
     33 H1         -0.5959   -3.8939   -2.5383 H         1 <0>         0.1500
     34 H2          0.1386   -0.3715   -0.0538 H         1 <0>         0.1500
     35 H3          1.5478   -4.7725   -1.9798 H         1 <0>         0.1500
     36 H4          3.4982   -0.7503    0.3948 H         1 <0>         0.0000
     37 H5          2.0787   -0.1205    1.2053 H         1 <0>         0.0000
     38 H6          3.5315   -1.3492    2.7647 H         1 <0>         0.0000
     39 H7          1.9261   -2.0658    2.6724 H         1 <0>         0.0000
     40 H8          5.3999   -2.9662    3.7309 H         1 <0>         0.0000
     41 H9          3.9485   -2.8481    4.7287 H         1 <0>         0.0000
     42 H10         2.5440   -6.4998    2.2405 H         1 <0>         0.0000
     43 H11         3.9285   -7.2133    1.4621 H         1 <0>         0.0000
     44 H12         4.4418   -3.0431    1.2535 H         1 <0>         0.0000
     45 H13         2.7179   -4.3234    3.3917 H         1 <0>         0.0000
     46 H14         6.1385   -4.7270    4.9294 H         1 <0>         0.0000
     47 H15         4.0349   -5.3952   -0.1813 H         1 <0>         0.0000
     48 H16         3.4856   -4.7673    6.4083 H         1 <0>         0.0000
     49 H17         4.9170   -3.8150    6.8464 H         1 <0>         0.0000
     50 H18         4.9778   -5.5872    6.9071 H         1 <0>         0.0000
     51 H19         4.2598   -2.4385   -0.8240 H         1 <0>         0.0000
     52 H20         3.2455   -2.2864   -2.2715 H         1 <0>         0.0000
     53 H21         3.8762   -3.8742   -1.7932 H         1 <0>         0.0000
     54 H22         6.4434   -4.7335    2.6491 H         1 <0>         0.0000
     55 H23         5.6675   -4.7519    1.0539 H         1 <0>         0.0000
     56 H24         6.2134   -6.2700    1.7924 H         1 <0>         0.0000
     57 H25         5.6138   -7.3441    6.3627 H         1 <0>         0.0000
     58 H26         6.9035   -6.3338    5.6459 H         1 <0>         0.0000
     59 H27         2.6619   -7.1137   -0.4621 H         1 <0>         0.4000
     60 H28         2.6928   -5.8793    4.5577 H         1 <0>         0.4000
@<TRIPOS>BOND
     1    1    3 2
     2    1    5 1
     3    2    4 2
     4    2    5 1
     5    3   15 1
     6    4    7 1
     7    4   15 1
     8    5   25 2
     9    6   16 1
    10    6   22 1
    11    6   26 2
    12    7    8 1
    13    8   11 1
    14    9   12 1
    15    9   13 1
    16   10   14 1
    17   10   17 1
    18   11   12 1
    19   11   18 1
    20   12   17 1
    21   13   16 1
    22   13   19 1
    23   14   18 1
    24   14   28 1
    25   15   18 1
    26   15   20 1
    27   16   17 1
    28   16   29 1
    29   17   21 1
    30   18   31 1
    31   22   30 1
    32   23   32 1
    33   24   32 1
    34   27   32 2
    35   30   32 1
    36    1   33 1
    37    2   34 1
    38    3   35 1
    39    7   36 1
    40    7   37 1
    41    8   38 1
    42    8   39 1
    43    9   40 1
    44    9   41 1
    45   10   42 1
    46   10   43 1
    47   11   44 1
    48   12   45 1
    49   13   46 1
    50   14   47 1
    51   19   48 1
    52   19   49 1
    53   19   50 1
    54   20   51 1
    55   20   52 1
    56   20   53 1
    57   21   54 1
    58   21   55 1
    59   21   56 1
    60   22   57 1
    61   22   58 1
    62   28   59 1
    63   29   60 1
@<TRIPOS>MOLECULE
ZINC01532179_0
   42    41     0     0     0
SMALL
USER_CHARGES

mmff94s_NoEstat = 6.02
@<TRIPOS>ATOM
      1 C1         -0.3778   -1.3018   -2.3265 C.3       1 <0>         0.0000
      2 C2          0.5930   -1.3978   -1.1591 C.3       1 <0>         0.0000
      3 C3          0.9227   -2.8538   -0.8276 C.3       1 <0>         0.0000
      4 C4          1.8390   -3.0112    0.3903 C.3       1 <0>         0.0000
      5 C5          2.1882   -4.4685    0.7026 C.3       1 <0>         0.0000
      6 C6          3.1746   -4.6231    1.8657 C.3       1 <0>         0.0000
      7 C7          3.6096   -6.0565    2.1899 C.3       1 <0>         0.0000
      8 C8          4.5216   -6.1504    3.4154 C.3       1 <0>         0.0000
      9 C9          4.9661   -7.5822    3.7312 C.3       1 <0>         0.0000
     10 C10         5.8979   -7.6746    4.9422 C.3       1 <0>         0.0000
     11 C11         6.3334   -9.1218    5.1959 C.3       1 <0>         0.0000
     12 C12         7.2419   -9.2451    6.4131 C.3       1 <0>         0.2800
     13 O1          8.7271  -12.4602    7.7636 O.3       1 <0>        -0.8167
     14 O2          7.8278  -10.5697    9.0437 O.2       1 <0>        -0.8167
     15 O3          9.8090  -10.2554    7.6305 O.2       1 <0>        -0.8167
     16 O4          7.6000  -10.6046    6.6149 O.3       1 <0>        -0.4637
     17 S1          8.5793  -11.0094    7.8690 S.o2      1 <0>         1.6337
     18 H1         -1.3067   -1.8393   -2.1102 H         1 <0>         0.0000
     19 H2         -0.6298   -0.2553   -2.5244 H         1 <0>         0.0000
     20 H3          0.0602   -1.7240   -3.2365 H         1 <0>         0.0000
     21 H4          1.5044   -0.8487   -1.4174 H         1 <0>         0.0000
     22 H5          0.1518   -0.9066   -0.2842 H         1 <0>         0.0000
     23 H6          1.3807   -3.3388   -1.6983 H         1 <0>         0.0000
     24 H7         -0.0111   -3.3923   -0.6223 H         1 <0>         0.0000
     25 H8          1.3235   -2.5668    1.2493 H         1 <0>         0.0000
     26 H9          2.7583   -2.4332    0.2371 H         1 <0>         0.0000
     27 H10         1.2728   -5.0348    0.9085 H         1 <0>         0.0000
     28 H11         2.6461   -4.9332   -0.1779 H         1 <0>         0.0000
     29 H12         2.7307   -4.1839    2.7678 H         1 <0>         0.0000
     30 H13         4.0676   -4.0259    1.6416 H         1 <0>         0.0000
     31 H14         4.0995   -6.4969    1.3153 H         1 <0>         0.0000
     32 H15         2.7056   -6.6518    2.3690 H         1 <0>         0.0000
     33 H16         3.9884   -5.7570    4.2896 H         1 <0>         0.0000
     34 H17         5.4096   -5.5236    3.2754 H         1 <0>         0.0000
     35 H18         4.0685   -8.1832    3.9233 H         1 <0>         0.0000
     36 H19         5.4556   -8.0186    2.8522 H         1 <0>         0.0000
     37 H20         5.3857   -7.2858    5.8305 H         1 <0>         0.0000
     38 H21         6.7839   -7.0516    4.7787 H         1 <0>         0.0000
     39 H22         6.8626   -9.4926    4.3097 H         1 <0>         0.0000
     40 H23         5.4494   -9.7526    5.3446 H         1 <0>         0.0000
     41 H24         6.7193   -8.8911    7.3075 H         1 <0>         0.0000
     42 H25         8.1546   -8.6548    6.2827 H         1 <0>         0.0000
@<TRIPOS>BOND
     1    1    2 1
     2    2    3 1
     3    3    4 1
     4    4    5 1
     5    5    6 1
     6    6    7 1
     7    7    8 1
     8    8    9 1
     9    9   10 1
    10   10   11 1
    11   11   12 1
    12   12   16 1
    13   13   17 1
    14   14   17 2
    15   15   17 2
    16   16   17 1
    17    1   18 1
    18    1   19 1
    19    1   20 1
    20    2   21 1
    21    2   22 1
    22    3   23 1
    23    3   24 1
    24    4   25 1
    25    4   26 1
    26    5   27 1
    27    5   28 1
    28    6   29 1
    29    6   30 1
    30    7   31 1
    31    7   32 1
    32    8   33 1
    33    8   34 1
    34    9   35 1
    35    9   36 1
    36   10   37 1
    37   10   38 1
    38   11   39 1
    39   11   40 1
    40   12   41 1
    41   12   42 1
@<TRIPOS>MOLECULE
ZINC04282168_148
   78    81     0     0     0
SMALL
USER_CHARGES

mmff94s_NoEstat = 115.67
@<TRIPOS>ATOM
      1 C1          5.5064   -8.7770    6.8830 C.2       1 <0>         0.5690
      2 C2          2.1973   -1.0058    1.0871 C.3       1 <0>         0.0000
      3 C3          2.6255   -2.0404    2.1232 C.3       1 <0>         0.0000
      4 C4          4.4674   -3.9648    3.7263 C.3       1 <0>         0.0000
      5 C5          4.9860   -5.3128    4.2587 C.3       1 <0>         0.0000
      6 C6         -0.4287   -3.7126   -1.1703 C.3       1 <0>         0.0000
      7 C7          0.9450   -3.4040   -1.7518 C.3       1 <0>         0.0000
      8 C8         -0.1043   -1.8896    0.5348 C.3       1 <0>         0.0000
      9 C9          2.9697   -5.2032   -0.2005 C.3       1 <0>         0.0000
     10 C10         1.3045   -1.5897   -0.0202 C.3       1 <0>         0.0000
     11 C11         3.2821   -3.2687    1.4794 C.3       1 <0>         0.0000
     12 C12         3.5999   -4.3427    2.5276 C.3       1 <0>         0.0000
     13 C13         2.3651   -3.8909    0.3768 C.3       1 <0>         0.0000
     14 C14         4.5343   -6.3825    3.2376 C.3       1 <0>         0.0000
     15 C15        -1.0350   -2.4747   -0.5217 C.3       1 <0>         0.2800
     16 C16         3.3880   -6.2225    0.8814 C.3       1 <0>         0.2800
     17 C17         1.9570   -2.8315   -0.7165 C.3       1 <0>         0.0000
     18 C18         4.3171   -5.5763    1.9294 C.3       1 <0>         0.0000
     19 C19         3.1917   -2.3711   -1.5343 C.3       1 <0>         0.0000
     20 C20         5.6768   -5.2380    1.2597 C.3       1 <0>         0.0000
     21 C21         4.7958   -8.7549    2.4871 C.3       1 <0>         0.0000
     22 C22         4.9383   -8.3664    5.5347 C.3       1 <0>         0.0610
     23 C23         6.0244   -7.9142    4.5581 C.3       1 <0>         0.0000
     24 C24         6.3727  -10.7848    8.0754 C.3       1 <0>         0.3001
     25 C25         7.7312  -11.3986    7.7965 C.3       1 <0>         0.1052
     26 C26         5.4908   -7.5635    3.1542 C.3       1 <0>         0.0000
     27 N1          5.8221  -10.1277    6.9122 N.am      1 <0>        -0.7301
     28 O1          8.6203   -9.0407    8.0830 O.3       1 <0>        -0.8167
     29 O2          5.6525   -7.9944    7.8179 O.2       1 <0>        -0.5700
     30 O3         10.1909  -10.8522    7.5070 O.2       1 <0>        -0.8167
     31 O4          8.5768  -10.0398    5.8291 O.2       1 <0>        -0.8167
     32 O5         -2.2841   -2.8103    0.0735 O.3       1 <0>        -0.6800
     33 O6          2.2278   -6.8095    1.4668 O.3       1 <0>        -0.6800
     34 S1          8.9074  -10.2031    7.2439 S.o2      1 <0>         1.3448
     35 H1          1.6765   -0.1836    1.5929 H         1 <0>         0.0000
     36 H2          3.0928   -0.5594    0.6381 H         1 <0>         0.0000
     37 H3          3.3269   -1.5647    2.8191 H         1 <0>         0.0000
     38 H4          1.7601   -2.3468    2.7229 H         1 <0>         0.0000
     39 H5          3.8961   -3.4300    4.4919 H         1 <0>         0.0000
     40 H6          5.3050   -3.3230    3.4306 H         1 <0>         0.0000
     41 H7          6.0762   -5.2778    4.3650 H         1 <0>         0.0000
     42 H8          4.5696   -5.5303    5.2485 H         1 <0>         0.0000
     43 H9         -1.0962   -4.0700   -1.9640 H         1 <0>         0.0000
     44 H10        -0.3716   -4.5364   -0.4488 H         1 <0>         0.0000
     45 H11         1.3434   -4.2995   -2.2405 H         1 <0>         0.0000
     46 H12         0.8078   -2.6711   -2.5596 H         1 <0>         0.0000
     47 H13        -0.0604   -2.5707    1.3927 H         1 <0>         0.0000
     48 H14        -0.5520   -0.9680    0.9295 H         1 <0>         0.0000
     49 H15         2.2239   -5.6892   -0.8390 H         1 <0>         0.0000
     50 H16         3.8323   -4.9752   -0.8332 H         1 <0>         0.0000
     51 H17         1.1771   -0.8019   -0.7768 H         1 <0>         0.0000
     52 H18         4.2206   -2.9311    1.0283 H         1 <0>         0.0000
     53 H19         2.6356   -4.6591    2.9557 H         1 <0>         0.0000
     54 H20         1.4409   -4.1926    0.8858 H         1 <0>         0.0000
     55 H21         3.5684   -6.7750    3.5850 H         1 <0>         0.0000
     56 H22        -1.2363   -1.7188   -1.2897 H         1 <0>         0.0000
     57 H23         3.9145   -7.0493    0.3904 H         1 <0>         0.0000
     58 H24         3.9253   -1.9639   -0.8527 H         1 <0>         0.0000
     59 H25         2.8763   -1.6157   -2.2403 H         1 <0>         0.0000
     60 H26         3.5986   -3.2258   -2.0563 H         1 <0>         0.0000
     61 H27         6.1052   -6.1508    0.8719 H         1 <0>         0.0000
     62 H28         6.3277   -4.8036    2.0045 H         1 <0>         0.0000
     63 H29         5.4997   -4.5352    0.4586 H         1 <0>         0.0000
     64 H30         3.9339   -9.0969    3.0676 H         1 <0>         0.0000
     65 H31         5.4841   -9.6028    2.4007 H         1 <0>         0.0000
     66 H32         4.4498   -8.4973    1.4804 H         1 <0>         0.0000
     67 H33         4.3943   -9.2222    5.1180 H         1 <0>         0.0000
     68 H34         4.2198   -7.5585    5.7111 H         1 <0>         0.0000
     69 H35         6.5575   -7.0516    4.9788 H         1 <0>         0.0000
     70 H36         6.7683   -8.7160    4.4601 H         1 <0>         0.0000
     71 H37         5.6501  -11.5393    8.4014 H         1 <0>         0.0000
     72 H38         6.4565  -10.0259    8.8593 H         1 <0>         0.0000
     73 H39         7.6558  -12.1443    6.9995 H         1 <0>         0.0000
     74 H40         8.1527  -11.8749    8.6868 H         1 <0>         0.0000
     75 H41         6.3427   -7.2722    2.5223 H         1 <0>         0.0000
     76 H42         5.6412  -10.6978    6.0911 H         1 <0>         0.3700
     77 H43        -2.6299   -1.9958    0.4712 H         1 <0>         0.4000
     78 H44         1.7485   -7.2488    0.7476 H         1 <0>         0.4000
@<TRIPOS>BOND
     1    1   22 1
     2    1   27 am
     3    1   29 2
     4    2    3 1
     5    2   10 1
     6    3   11 1
     7    4    5 1
     8    4   12 1
     9    5   14 1
    10    6    7 1
    11    6   15 1
    12    7   17 1
    13    8   10 1
    14    8   15 1
    15    9   13 1
    16    9   16 1
    17   10   17 1
    18   11   12 1
    19   11   13 1
    20   12   18 1
    21   13   17 1
    22   14   18 1
    23   14   26 1
    24   15   32 1
    25   16   18 1
    26   16   33 1
    27   17   19 1
    28   18   20 1
    29   21   26 1
    30   22   23 1
    31   23   26 1
    32   24   25 1
    33   24   27 1
    34   25   34 1
    35   28   34 1
    36   30   34 2
    37   31   34 2
    38    2   35 1
    39    2   36 1
    40    3   37 1
    41    3   38 1
    42    4   39 1
    43    4   40 1
    44    5   41 1
    45    5   42 1
    46    6   43 1
    47    6   44 1
    48    7   45 1
    49    7   46 1
    50    8   47 1
    51    8   48 1
    52    9   49 1
    53    9   50 1
    54   10   51 1
    55   11   52 1
    56   12   53 1
    57   13   54 1
    58   14   55 1
    59   15   56 1
    60   16   57 1
    61   19   58 1
    62   19   59 1
    63   19   60 1
    64   20   61 1
    65   20   62 1
    66   20   63 1
    67   21   64 1
    68   21   65 1
    69   21   66 1
    70   22   67 1
    71   22   68 1
    72   23   69 1
    73   23   70 1
    74   24   71 1
    75   24   72 1
    76   25   73 1
    77   25   74 1
    78   26   75 1
    79   27   76 1
    80   32   77 1
    81   33   78 1
@<TRIPOS>MOLECULE
ZINC06036243_24
   69    72     0     0     0
SMALL
USER_CHARGES

mmff94s_NoEstat = 111.00
@<TRIPOS>ATOM
      1 C1         -0.1371   -1.2927   -1.7952 C.2       1 <0>         0.4480
      2 C2          7.7082   -8.8918    6.4220 C.2       1 <0>         0.6590
      3 C3          0.0306   -2.6421   -2.4390 C.3       1 <0>         0.0610
      4 C4          1.1002   -0.6966   -1.1754 C.3       1 <0>         0.0610
      5 C5          0.6205   -3.6111   -1.4270 C.3       1 <0>         0.0000
      6 C6          1.1380   -1.6632    1.1639 C.3       1 <0>         0.0000
      7 C7          2.0192   -2.3558    2.2044 C.3       1 <0>         0.0000
      8 C8          4.0297   -3.9668    3.9552 C.3       1 <0>         0.0000
      9 C9          4.6593   -5.2347    4.5590 C.3       1 <0>         0.0000
     10 C10         3.0281   -5.4290   -0.0496 C.3       1 <0>         0.0000
     11 C11         1.8029   -1.6677   -0.2153 C.3       1 <0>         0.0000
     12 C12         2.9506   -3.4389    1.6199 C.3       1 <0>         0.0000
     13 C13         3.3102   -4.4640    2.7026 C.3       1 <0>         0.0000
     14 C14         2.2763   -4.1476    0.4130 C.3       1 <0>         0.0000
     15 C15         4.4051   -6.3684    3.5385 C.3       1 <0>         0.0000
     16 C16         3.4287   -6.3792    1.0952 C.3       1 <0>         0.2800
     17 C17         1.9485   -3.1316   -0.7653 C.3       1 <0>         0.0000
     18 C18         4.2012   -5.6185    2.1949 C.3       1 <0>         0.0000
     19 C19         3.0644   -3.1114   -1.8381 C.3       1 <0>         0.0000
     20 C20         5.5629   -5.1390    1.6234 C.3       1 <0>         0.0000
     21 C21         4.9787   -8.7098    2.8671 C.3       1 <0>         0.0000
     22 C22         9.4208   -9.9758    7.6429 C.3       1 <0>         0.2800
     23 C23         7.3058   -8.5130    5.0140 C.3       1 <0>         0.0610
     24 C24         5.9640   -7.7788    4.9822 C.3       1 <0>         0.0000
     25 C25         5.4876   -7.4380    3.5555 C.3       1 <0>         0.0000
     26 O1         -1.1974   -0.6727   -1.8518 O.2       1 <0>        -0.5700
     27 O2          7.0707   -8.6306    7.4328 O.2       1 <0>        -0.5700
     28 O3          2.2335   -6.9745    1.5968 O.3       1 <0>        -0.6800
     29 O4          8.8995   -9.5590    6.3768 O.3       1 <0>        -0.4300
     30 H1         -0.9385   -2.9797   -2.8152 H         1 <0>         0.0000
     31 H2          0.7083   -2.5456   -3.2931 H         1 <0>         0.0000
     32 H3          1.7904   -0.4175   -1.9861 H         1 <0>         0.0000
     33 H4          0.7966    0.2373   -0.6829 H         1 <0>         0.0000
     34 H5         -0.1343   -3.8461   -0.6662 H         1 <0>         0.0000
     35 H6          0.8136   -4.5620   -1.9472 H         1 <0>         0.0000
     36 H7          0.1726   -2.1643    1.1209 H         1 <0>         0.0000
     37 H8          0.9497   -0.6399    1.4828 H         1 <0>         0.0000
     38 H9          2.6236   -1.5865    2.7135 H         1 <0>         0.0000
     39 H10         1.3860   -2.7965    2.9925 H         1 <0>         0.0000
     40 H11         3.3398   -3.4924    4.6601 H         1 <0>         0.0000
     41 H12         4.8068   -3.2347    3.7095 H         1 <0>         0.0000
     42 H13         5.7282   -5.0725    4.7384 H         1 <0>         0.0000
     43 H14         4.2014   -5.4794    5.5237 H         1 <0>         0.0000
     44 H15         2.3821   -5.9884   -0.7395 H         1 <0>         0.0000
     45 H16         3.9243   -5.1549   -0.6195 H         1 <0>         0.0000
     46 H17         2.8328   -1.2747   -0.0723 H         1 <0>         0.0000
     47 H18         3.8595   -2.9276    1.3005 H         1 <0>         0.0000
     48 H19         2.3526   -4.8852    3.0625 H         1 <0>         0.0000
     49 H20         1.2954   -4.5118    0.7818 H         1 <0>         0.0000
     50 H21         3.4644   -6.8596    3.8251 H         1 <0>         0.0000
     51 H22         4.0430   -7.1929    0.6905 H         1 <0>         0.0000
     52 H23         3.9823   -2.7786   -1.3747 H         1 <0>         0.0000
     53 H24         2.7733   -2.4308   -2.6255 H         1 <0>         0.0000
     54 H25         3.1832   -4.1113   -2.2308 H         1 <0>         0.0000
     55 H26         6.1199   -6.0036    1.2931 H         1 <0>         0.0000
     56 H27         6.0997   -4.6213    2.4049 H         1 <0>         0.0000
     57 H28         5.3718   -4.4744    0.7935 H         1 <0>         0.0000
     58 H29         4.1140   -9.1251    3.3957 H         1 <0>         0.0000
     59 H30         4.6791   -8.5071    1.8331 H         1 <0>         0.0000
     60 H31         5.7582   -9.4789    2.8498 H         1 <0>         0.0000
     61 H32        10.3699  -10.4964    7.4935 H         1 <0>         0.0000
     62 H33         8.7029  -10.6381    8.1333 H         1 <0>         0.0000
     63 H34         9.5856   -9.0943    8.2670 H         1 <0>         0.0000
     64 H35         8.0980   -7.8790    4.6033 H         1 <0>         0.0000
     65 H36         7.2345   -9.4317    4.4209 H         1 <0>         0.0000
     66 H37         6.0369   -6.8599    5.5787 H         1 <0>         0.0000
     67 H38         5.2067   -8.4034    5.4744 H         1 <0>         0.0000
     68 H39         6.3507   -7.0729    2.9798 H         1 <0>         0.0000
     69 H40         1.8335   -7.4520    0.8546 H         1 <0>         0.4000
@<TRIPOS>BOND
     1    1    3 1
     2    1    4 1
     3    1   26 2
     4    2   23 1
     5    2   27 2
     6    2   29 1
     7    3    5 1
     8    4   11 1
     9    5   17 1
    10    6    7 1
    11    6   11 1
    12    7   12 1
    13    8    9 1
    14    8   13 1
    15    9   15 1
    16   10   14 1
    17   10   16 1
    18   11   17 1
    19   12   13 1
    20   12   14 1
    21   13   18 1
    22   14   17 1
    23   15   18 1
    24   15   25 1
    25   16   18 1
    26   16   28 1
    27   17   19 1
    28   18   20 1
    29   21   25 1
    30   22   29 1
    31   23   24 1
    32   24   25 1
    33    3   30 1
    34    3   31 1
    35    4   32 1
    36    4   33 1
    37    5   34 1
    38    5   35 1
    39    6   36 1
    40    6   37 1
    41    7   38 1
    42    7   39 1
    43    8   40 1
    44    8   41 1
    45    9   42 1
    46    9   43 1
    47   10   44 1
    48   10   45 1
    49   11   46 1
    50   12   47 1
    51   13   48 1
    52   14   49 1
    53   15   50 1
    54   16   51 1
    55   19   52 1
    56   19   53 1
    57   19   54 1
    58   20   55 1
    59   20   56 1
    60   20   57 1
    61   21   58 1
    62   21   59 1
    63   21   60 1
    64   22   61 1
    65   22   62 1
    66   22   63 1
    67   23   64 1
    68   23   65 1
    69   24   66 1
    70   24   67 1
    71   25   68 1
    72   28   69 1
@<TRIPOS>MOLECULE
ZINC83291832_157
   78    81     0     0     0
SMALL
USER_CHARGES

mmff94s_NoEstat = 117.66
@<TRIPOS>ATOM
      1 C1          5.6272   -8.7137    7.0400 C.2       1 <0>         0.5690
      2 C2          4.4532   -3.9749    3.8150 C.3       1 <0>         0.0000
      3 C3          2.6121   -5.3328    0.0833 C.3       1 <0>         0.0000
      4 C4          4.9755   -5.3184    4.3565 C.3       1 <0>         0.0000
      5 C5         -0.1956   -2.5856   -2.2602 C.3       1 <0>         0.0000
      6 C6          3.1071   -6.2995    1.1742 C.3       1 <0>         0.0000
      7 C7          0.4619   -3.5812   -1.3026 C.3       1 <0>         0.0000
      8 C8          2.5242   -2.0657    2.2861 C.3       1 <0>         0.0000
      9 C9          0.4306   -0.6839   -0.7036 C.3       1 <0>         0.0000
     10 C10         3.4938   -4.3712    2.6962 C.3       1 <0>         0.0000
     11 C11         2.0970   -3.9792    0.6420 C.3       1 <0>         0.0000
     12 C12         3.1133   -3.3293    1.6371 C.3       1 <0>         0.0000
     13 C13         1.0434   -1.7028    0.2703 C.3       1 <0>         0.0000
     14 C14         4.4398   -6.4093    3.4001 C.3       1 <0>         0.0000
     15 C15        -0.6725   -1.3254   -1.5449 C.3       1 <0>         0.2800
     16 C16         2.0236   -1.0486    1.2598 C.3       1 <0>         0.2800
     17 C17         1.6205   -2.9631   -0.4627 C.3       1 <0>         0.0000
     18 C18         4.1422   -5.6357    2.0925 C.3       1 <0>         0.0000
     19 C19         2.7808   -2.6249   -1.4327 C.3       1 <0>         0.0000
     20 C20         5.4438   -5.3617    1.2981 C.3       1 <0>         0.0000
     21 C21         4.6176   -8.8060    2.7037 C.3       1 <0>         0.0000
     22 C22         4.9735   -8.3330    5.7220 C.3       1 <0>         0.0610
     23 C23         5.9961   -7.9256    4.6608 C.3       1 <0>         0.0000
     24 C24         6.5461  -10.6998    8.2293 C.3       1 <0>         0.3001
     25 C25         7.8740  -11.3421    7.8766 C.3       1 <0>         0.1052
     26 C26         5.3724   -7.6067    3.2867 C.3       1 <0>         0.0000
     27 N1          5.9260  -10.0677    7.0874 N.am      1 <0>        -0.7301
     28 O1          8.8121   -8.9910    8.0325 O.3       1 <0>        -0.8167
     29 O2          5.8474   -7.9072    7.9393 O.2       1 <0>        -0.5700
     30 O3         10.3152  -10.8420    7.4045 O.2       1 <0>        -0.8167
     31 O4          8.6009  -10.0531    5.8171 O.2       1 <0>        -0.8167
     32 O5         -1.1318   -0.3956   -2.5207 O.3       1 <0>        -0.6800
     33 O6          3.1179   -0.4526    0.5753 O.3       1 <0>        -0.6800
     34 S1          9.0254  -10.1811    7.2104 S.o2      1 <0>         1.3448
     35 H1          3.9514   -3.3998    4.5997 H         1 <0>         0.0000
     36 H2          5.2822   -3.3666    3.4368 H         1 <0>         0.0000
     37 H3          3.4188   -5.1666   -0.6371 H         1 <0>         0.0000
     38 H4          1.8096   -5.8382   -0.4652 H         1 <0>         0.0000
     39 H5          6.0707   -5.3038    4.3934 H         1 <0>         0.0000
     40 H6          4.6175   -5.4970    5.3763 H         1 <0>         0.0000
     41 H7          0.4954   -2.3183   -3.0692 H         1 <0>         0.0000
     42 H8         -1.0470   -3.0636   -2.7605 H         1 <0>         0.0000
     43 H9          2.2422   -6.6341    1.7613 H         1 <0>         0.0000
     44 H10         3.5261   -7.1974    0.7045 H         1 <0>         0.0000
     45 H11        -0.3089   -3.9756   -0.6273 H         1 <0>         0.0000
     46 H12         0.8217   -4.4324   -1.8924 H         1 <0>         0.0000
     47 H13         1.6918   -2.3472    2.9439 H         1 <0>         0.0000
     48 H14         3.2884   -1.5943    2.9158 H         1 <0>         0.0000
     49 H15         0.0017    0.1573   -0.1436 H         1 <0>         0.0000
     50 H16         1.1908   -0.2342   -1.3526 H         1 <0>         0.0000
     51 H17         2.5553   -4.6675    3.1947 H         1 <0>         0.0000
     52 H18         1.2039   -4.2320    1.2357 H         1 <0>         0.0000
     53 H19         4.0178   -3.0277    1.1001 H         1 <0>         0.0000
     54 H20         0.2048   -2.0606    0.8896 H         1 <0>         0.0000
     55 H21         3.4900   -6.7779    3.8145 H         1 <0>         0.0000
     56 H22        -1.5247   -1.5784   -0.9027 H         1 <0>         0.0000
     57 H23         1.5079   -0.2405    1.7925 H         1 <0>         0.0000
     58 H24         3.5937   -2.1943   -0.8641 H         1 <0>         0.0000
     59 H25         2.4229   -1.9173   -2.1679 H         1 <0>         0.0000
     60 H26         3.1045   -3.5361   -1.9169 H         1 <0>         0.0000
     61 H27         6.1617   -4.8945    1.9585 H         1 <0>         0.0000
     62 H28         5.2138   -4.7040    0.4711 H         1 <0>         0.0000
     63 H29         5.8308   -6.3026    0.9310 H         1 <0>         0.0000
     64 H30         3.7929   -9.1179    3.3514 H         1 <0>         0.0000
     65 H31         5.2869   -9.6665    2.5959 H         1 <0>         0.0000
     66 H32         4.2072   -8.5719    1.7159 H         1 <0>         0.0000
     67 H33         4.3908   -9.1919    5.3686 H         1 <0>         0.0000
     68 H34         4.2796   -7.5095    5.9231 H         1 <0>         0.0000
     69 H35         6.5684   -7.0596    5.0187 H         1 <0>         0.0000
     70 H36         6.7208   -8.7412    4.5361 H         1 <0>         0.0000
     71 H37         5.8376  -11.4336    8.6258 H         1 <0>         0.0000
     72 H38         6.6936   -9.9203    8.9830 H         1 <0>         0.0000
     73 H39         7.7342  -12.1090    7.1090 H         1 <0>         0.0000
     74 H40         8.3490  -11.7992    8.7500 H         1 <0>         0.0000
     75 H41         6.1830   -7.3468    2.5900 H         1 <0>         0.0000
     76 H42         5.6817  -10.6581    6.2976 H         1 <0>         0.3700
     77 H43        -1.8593   -0.8278   -2.9950 H         1 <0>         0.4000
     78 H44         3.6627   -0.0131    1.2479 H         1 <0>         0.4000
@<TRIPOS>BOND
     1    1   22 1
     2    1   27 am
     3    1   29 2
     4    2    4 1
     5    2   10 1
     6    3    6 1
     7    3   11 1
     8    4   14 1
     9    5    7 1
    10    5   15 1
    11    6   18 1
    12    7   17 1
    13    8   12 1
    14    8   16 1
    15    9   13 1
    16    9   15 1
    17   10   12 1
    18   10   18 1
    19   11   12 1
    20   11   17 1
    21   13   16 1
    22   13   17 1
    23   14   18 1
    24   14   26 1
    25   15   32 1
    26   16   33 1
    27   17   19 1
    28   18   20 1
    29   21   26 1
    30   22   23 1
    31   23   26 1
    32   24   25 1
    33   24   27 1
    34   25   34 1
    35   28   34 1
    36   30   34 2
    37   31   34 2
    38    2   35 1
    39    2   36 1
    40    3   37 1
    41    3   38 1
    42    4   39 1
    43    4   40 1
    44    5   41 1
    45    5   42 1
    46    6   43 1
    47    6   44 1
    48    7   45 1
    49    7   46 1
    50    8   47 1
    51    8   48 1
    52    9   49 1
    53    9   50 1
    54   10   51 1
    55   11   52 1
    56   12   53 1
    57   13   54 1
    58   14   55 1
    59   15   56 1
    60   16   57 1
    61   19   58 1
    62   19   59 1
    63   19   60 1
    64   20   61 1
    65   20   62 1
    66   20   63 1
    67   21   64 1
    68   21   65 1
    69   21   66 1
    70   22   67 1
    71   22   68 1
    72   23   69 1
    73   23   70 1
    74   24   71 1
    75   24   72 1
    76   25   73 1
    77   25   74 1
    78   26   75 1
    79   27   76 1
    80   32   77 1
    81   33   78 1
@<TRIPOS>MOLECULE
ZINC40576706_0
   53    56     0     0     0
SMALL
USER_CHARGES

mmff94s_NoEstat = 79.47
@<TRIPOS>ATOM
      1 C1          2.0126   -1.2170    1.2343 C.2       1 <0>        -0.1500
      2 C2          0.3172   -0.9301   -0.4606 C.2       1 <0>        -0.1356
      3 C3          2.9247   -1.9496    1.8881 C.2       1 <0>        -0.2882
      4 C4          1.3277   -1.6673    0.0308 C.2       1 <0>        -0.1382
      5 C5         -0.4250   -1.3427   -1.6754 C.2       1 <0>         0.4946
      6 C6          3.0509   -6.2676    1.2576 C.2       1 <0>         0.4480
      7 C7         -0.0513   -2.6352   -2.3559 C.3       1 <0>         0.0610
      8 C8          2.6243   -5.3872    0.0849 C.3       1 <0>         0.0610
      9 C9          0.6102   -3.6112   -1.3911 C.3       1 <0>         0.0000
     10 C10         4.4775   -3.9002    3.7777 C.3       1 <0>         0.0000
     11 C11         4.7876   -5.2299    4.4851 C.3       1 <0>         0.0000
     12 C12         3.3260   -3.3374    1.4649 C.3       1 <0>         0.1382
     13 C13         2.2271   -3.9695    0.5479 C.3       1 <0>         0.0000
     14 C14         3.5418   -4.2996    2.6422 C.3       1 <0>         0.0000
     15 C15         4.2306   -6.3506    3.5756 C.3       1 <0>         0.0000
     16 C16         1.7914   -2.9891   -0.5992 C.3       1 <0>         0.1382
     17 C17         4.0976   -5.6723    2.1933 C.3       1 <0>         0.0610
     18 C18         2.9588   -2.6967   -1.5714 C.3       1 <0>         0.0000
     19 C19         5.4432   -5.6272    1.4420 C.3       1 <0>         0.0000
     20 C20         5.0754   -8.2153    5.0384 C.3       1 <0>         0.2800
     21 C21         5.0761   -7.6168    3.6386 C.3       1 <0>         0.2800
     22 O1         -1.2999   -0.6077   -2.1312 O.2       1 <0>        -0.5700
     23 O2          2.6272   -7.4151    1.3829 O.2       1 <0>        -0.5700
     24 O3          5.9021   -9.3744    5.0436 O.3       1 <0>        -0.6800
     25 O4          4.5304   -8.5783    2.7381 O.3       1 <0>        -0.6800
     26 H1          1.7722   -0.2281    1.6170 H         1 <0>         0.1500
     27 H2          0.0015   -0.0005    0.0032 H         1 <0>         0.1500
     28 H3          3.4156   -1.5095    2.7515 H         1 <0>         0.1500
     29 H4         -0.9652   -3.0923   -2.7515 H         1 <0>         0.0000
     30 H5          0.6033   -2.4038   -3.2021 H         1 <0>         0.0000
     31 H6          3.4441   -5.3639   -0.6387 H         1 <0>         0.0000
     32 H7          1.7729   -5.8812   -0.3948 H         1 <0>         0.0000
     33 H8         -0.1523   -3.9704   -0.6858 H         1 <0>         0.0000
     34 H9          0.9432   -4.4852   -1.9632 H         1 <0>         0.0000
     35 H10         4.0136   -3.1865    4.4660 H         1 <0>         0.0000
     36 H11         5.3988   -3.4452    3.3970 H         1 <0>         0.0000
     37 H12         5.8679   -5.3228    4.6437 H         1 <0>         0.0000
     38 H13         4.3087   -5.2704    5.4699 H         1 <0>         0.0000
     39 H14         4.2678   -3.2302    0.9164 H         1 <0>         0.0000
     40 H15         1.3358   -4.1130    1.1832 H         1 <0>         0.0000
     41 H16         2.5526   -4.4564    3.1063 H         1 <0>         0.0000
     42 H17         3.2265   -6.6165    3.9372 H         1 <0>         0.0000
     43 H18         3.2854   -3.6282   -2.0152 H         1 <0>         0.0000
     44 H19         3.7704   -2.2443   -1.0165 H         1 <0>         0.0000
     45 H20         2.6112   -2.0197   -2.3409 H         1 <0>         0.0000
     46 H21         6.1996   -5.2058    2.0942 H         1 <0>         0.0000
     47 H22         5.3349   -5.0100    0.5576 H         1 <0>         0.0000
     48 H23         5.7236   -6.6344    1.1560 H         1 <0>         0.0000
     49 H24         5.4808   -7.5103    5.7718 H         1 <0>         0.0000
     50 H25         4.0670   -8.5160    5.3390 H         1 <0>         0.0000
     51 H26         6.1009   -7.4070    3.3158 H         1 <0>         0.0000
     52 H27         5.8786   -9.7283    5.9466 H         1 <0>         0.4000
     53 H28         3.6222   -8.7472    3.0325 H         1 <0>         0.4000
@<TRIPOS>BOND
     1    1    3 2
     2    1    4 1
     3    2    4 2
     4    2    5 1
     5    3   12 1
     6    4   16 1
     7    5    7 1
     8    5   22 2
     9    6    8 1
    10    6   17 1
    11    6   23 2
    12    7    9 1
    13    8   13 1
    14    9   16 1
    15   10   11 1
    16   10   14 1
    17   11   15 1
    18   12   13 1
    19   12   14 1
    20   13   16 1
    21   14   17 1
    22   15   17 1
    23   15   21 1
    24   16   18 1
    25   17   19 1
    26   20   21 1
    27   20   24 1
    28   21   25 1
    29    1   26 1
    30    2   27 1
    31    3   28 1
    32    7   29 1
    33    7   30 1
    34    8   31 1
    35    8   32 1
    36    9   33 1
    37    9   34 1
    38   10   35 1
    39   10   36 1
    40   11   37 1
    41   11   38 1
    42   12   39 1
    43   13   40 1
    44   14   41 1
    45   15   42 1
    46   18   43 1
    47   18   44 1
    48   18   45 1
    49   19   46 1
    50   19   47 1
    51   19   48 1
    52   20   49 1
    53   20   50 1
    54   21   51 1
    55   24   52 1
    56   25   53 1
@<TRIPOS>MOLECULE
ZINC04026280_8
   54    57     0     0     0
SMALL
USER_CHARGES

mmff94s_NoEstat = 106.86
@<TRIPOS>ATOM
      1 C1          4.2807   -8.9542    3.2525 C.1       1 <0>        -0.1770
      2 C2          4.5095   -7.7761    3.2246 C.1       1 <0>        -0.2000
      3 C3          1.0626   -3.3021   -1.6053 C.ar      1 <0>        -0.1500
      4 C4          0.1053   -2.5215   -2.2546 C.ar      1 <0>        -0.1500
      5 C5          0.1409   -0.9641   -0.4196 C.ar      1 <0>        -0.1500
      6 C6          1.5618   -2.9387   -0.3413 C.ar      1 <0>        -0.1435
      7 C7          1.1144   -1.7348    0.2377 C.ar      1 <0>        -0.1435
      8 C8         -0.3608   -1.3557   -1.6585 C.ar      1 <0>         0.0825
      9 C9          6.7424   -6.9275    4.3856 C.2       1 <0>         0.6590
     10 C10         1.6210   -1.2618    1.5753 C.3       1 <0>         0.1435
     11 C11         2.9513   -1.8984    1.9643 C.3       1 <0>         0.0000
     12 C12         2.3548   -5.3069    0.2240 C.3       1 <0>         0.0000
     13 C13         4.1680   -4.1310    3.8906 C.3       1 <0>         0.0000
     14 C14         4.0411   -5.5937    4.2961 C.3       1 <0>         0.0000
     15 C15         2.9657   -6.1424    1.3566 C.3       1 <0>         0.0000
     16 C16         2.6269   -3.7920    0.3359 C.3       1 <0>         0.1435
     17 C17         2.8690   -3.4228    1.8130 C.3       1 <0>         0.0000
     18 C18         4.1512   -4.1123    2.3463 C.3       1 <0>         0.0000
     19 C19         4.7896   -6.3344    3.1910 C.3       1 <0>         0.4800
     20 C20         4.3208   -5.6045    1.8877 C.3       1 <0>         0.0000
     21 C21         7.8438   -7.7419    3.7777 C.3       1 <0>         0.0610
     22 C22         5.3822   -5.7222    0.7716 C.3       1 <0>         0.0000
     23 C23        -1.7304    0.5881   -1.6165 C.3       1 <0>         0.2800
     24 O1          6.4128   -6.9908    5.5624 O.2       1 <0>        -0.5700
     25 O2         -1.2979   -0.5951   -2.2867 O.3       1 <0>        -0.3625
     26 O3          6.1850   -6.1267    3.4320 O.3       1 <0>        -0.4300
     27 H1          4.0778   -9.9993    3.2771 H         1 <0>         0.1770
     28 H2          1.4175   -4.2011   -2.1028 H         1 <0>         0.1500
     29 H3         -0.2692   -2.8299   -3.2269 H         1 <0>         0.1500
     30 H4         -0.2226   -0.0463    0.0379 H         1 <0>         0.1500
     31 H5          1.7470   -0.1724    1.5628 H         1 <0>         0.0000
     32 H6          0.8640   -1.4987    2.3334 H         1 <0>         0.0000
     33 H7          3.7545   -1.5024    1.3290 H         1 <0>         0.0000
     34 H8          3.1925   -1.6148    2.9947 H         1 <0>         0.0000
     35 H9          2.7400   -5.6686   -0.7382 H         1 <0>         0.0000
     36 H10         1.2757   -5.5097    0.2096 H         1 <0>         0.0000
     37 H11         3.3744   -3.5324    4.3486 H         1 <0>         0.0000
     38 H12         5.1198   -3.7219    4.2511 H         1 <0>         0.0000
     39 H13         4.4800   -5.7569    5.2869 H         1 <0>         0.0000
     40 H14         2.9839   -5.8810    4.3434 H         1 <0>         0.0000
     41 H15         2.2347   -6.1815    2.1745 H         1 <0>         0.0000
     42 H16         3.0701   -7.1752    1.0009 H         1 <0>         0.0000
     43 H17         3.5529   -3.5697   -0.2136 H         1 <0>         0.0000
     44 H18         2.0076   -3.7681    2.4050 H         1 <0>         0.0000
     45 H19         5.0197   -3.5290    2.0109 H         1 <0>         0.0000
     46 H20         7.4419   -8.6847    3.3984 H         1 <0>         0.0000
     47 H21         8.6229   -7.9263    4.5217 H         1 <0>         0.0000
     48 H22         8.2845   -7.1896    2.9424 H         1 <0>         0.0000
     49 H23         6.3272   -5.3464    1.1440 H         1 <0>         0.0000
     50 H24         5.0617   -5.1373   -0.0816 H         1 <0>         0.0000
     51 H25         5.4827   -6.7632    0.4904 H         1 <0>         0.0000
     52 H26        -2.4781    1.1007   -2.2265 H         1 <0>         0.0000
     53 H27        -0.8734    1.2441   -1.4439 H         1 <0>         0.0000
     54 H28        -2.1738    0.3112   -0.6571 H         1 <0>         0.0000
@<TRIPOS>BOND
     1    1    2 3
     2    2   19 1
     3    3    4 ar
     4    3    6 ar
     5    4    8 ar
     6    5    7 ar
     7    5    8 ar
     8    6    7 ar
     9    6   16 1
    10    7   10 1
    11    8   25 1
    12    9   21 1
    13    9   24 2
    14    9   26 1
    15   10   11 1
    16   11   17 1
    17   12   15 1
    18   12   16 1
    19   13   14 1
    20   13   18 1
    21   14   19 1
    22   15   20 1
    23   16   17 1
    24   17   18 1
    25   18   20 1
    26   19   20 1
    27   19   26 1
    28   20   22 1
    29   23   25 1
    30    1   27 1
    31    3   28 1
    32    4   29 1
    33    5   30 1
    34   10   31 1
    35   10   32 1
    36   11   33 1
    37   11   34 1
    38   12   35 1
    39   12   36 1
    40   13   37 1
    41   13   38 1
    42   14   39 1
    43   14   40 1
    44   15   41 1
    45   15   42 1
    46   16   43 1
    47   17   44 1
    48   18   45 1
    49   21   46 1
    50   21   47 1
    51   21   48 1
    52   22   49 1
    53   22   50 1
    54   22   51 1
    55   23   52 1
    56   23   53 1
    57   23   54 1
@<TRIPOS>MOLECULE
ZINC03872513_182
   52    55     0     0     0
SMALL
USER_CHARGES

mmff94s_NoEstat = 83.15
@<TRIPOS>ATOM
      1 C1          4.4629   -3.5700    3.3623 C.ar      1 <0>        -0.1500
      2 C2          5.2673   -4.3209    4.2222 C.ar      1 <0>        -0.1500
      3 C3          4.6589   -6.3210    3.0357 C.ar      1 <0>        -0.1500
      4 C4          3.7208   -4.1810    2.3353 C.ar      1 <0>        -0.1435
      5 C5          3.8545   -5.5750    2.1564 C.ar      1 <0>        -0.1435
      6 C6          5.3600   -5.6974    4.0638 C.ar      1 <0>         0.0825
      7 C7          0.1405   -1.3513   -1.1396 C.2       1 <0>         0.4480
      8 C8          9.2762   -9.0547    5.5633 C.2       1 <0>         0.9060
      9 C9          7.1718   -7.1410    4.2599 C.2       1 <0>         0.6590
     10 C10         3.1225   -6.3194    1.0680 C.3       1 <0>         0.1435
     11 C11         0.8826   -1.9187   -2.3236 C.3       1 <0>         0.0610
     12 C12         2.5871   -5.4091   -0.0317 C.3       1 <0>         0.0000
     13 C13         1.8250   -2.9214   -1.6676 C.3       1 <0>         0.0000
     14 C14         2.1076   -2.1870    2.0496 C.3       1 <0>         0.0000
     15 C15         1.3601   -1.3348    1.0243 C.3       1 <0>         0.0000
     16 C16         2.8740   -3.3437    1.3783 C.3       1 <0>         0.1435
     17 C17         1.8628   -4.2144    0.5935 C.3       1 <0>         0.0000
     18 C18         1.0477   -3.4198   -0.4424 C.3       1 <0>         0.0000
     19 C19         0.3990   -2.1413    0.1381 C.3       1 <0>         0.0610
     20 C20        -0.9130   -2.4521    0.8591 C.3       1 <0>         0.0000
     21 C21         9.5676   -7.7815    4.7591 C.3       1 <0>        -0.1060
     22 C22         8.5093   -6.6863    4.8057 C.3       1 <0>         0.0610
     23 O1         10.2226   -9.8943    5.5607 O.co2     1 <0>        -0.9000
     24 O2         -0.5861   -0.3672   -1.2100 O.2       1 <0>        -0.5700
     25 O3          8.1515   -9.1202    6.1305 O.co2     1 <0>        -0.9000
     26 O4          7.0110   -7.9849    3.3887 O.2       1 <0>        -0.5700
     27 O5          6.1395   -6.4316    4.9030 O.3       1 <0>        -0.2325
     28 H1          4.4390   -2.4941    3.5071 H         1 <0>         0.1500
     29 H2          5.8222   -3.8199    5.0109 H         1 <0>         0.1500
     30 H3          4.7410   -7.3989    2.9106 H         1 <0>         0.1500
     31 H4          3.7872   -7.0636    0.6130 H         1 <0>         0.0000
     32 H5          2.2871   -6.8613    1.5292 H         1 <0>         0.0000
     33 H6          0.1674   -2.4168   -2.9843 H         1 <0>         0.0000
     34 H7          1.4289   -1.1394   -2.8591 H         1 <0>         0.0000
     35 H8          3.4171   -5.0641   -0.6611 H         1 <0>         0.0000
     36 H9          1.9106   -5.9829   -0.6756 H         1 <0>         0.0000
     37 H10         2.0797   -3.7325   -2.3572 H         1 <0>         0.0000
     38 H11         2.7575   -2.4229   -1.3816 H         1 <0>         0.0000
     39 H12         2.7894   -1.5204    2.5877 H         1 <0>         0.0000
     40 H13         1.4066   -2.5810    2.7961 H         1 <0>         0.0000
     41 H14         0.8127   -0.5396    1.5470 H         1 <0>         0.0000
     42 H15         2.1025   -0.8139    0.4039 H         1 <0>         0.0000
     43 H16         3.5911   -2.9078    0.6690 H         1 <0>         0.0000
     44 H17         1.1360   -4.6172    1.3157 H         1 <0>         0.0000
     45 H18         0.2545   -4.0841   -0.8192 H         1 <0>         0.0000
     46 H19        -0.7087   -3.0156    1.7673 H         1 <0>         0.0000
     47 H20        -1.5582   -3.0408    0.2101 H         1 <0>         0.0000
     48 H21        -1.4178   -1.5239    1.1196 H         1 <0>         0.0000
     49 H22         9.7581   -8.0717    3.7183 H         1 <0>         0.0000
     50 H23        10.5061   -7.3719    5.1542 H         1 <0>         0.0000
     51 H24         8.8435   -5.8415    4.1927 H         1 <0>         0.0000
     52 H25         8.3682   -6.3378    5.8347 H         1 <0>         0.0000
@<TRIPOS>BOND
     1    1    2 ar
     2    1    4 ar
     3    2    6 ar
     4    3    5 ar
     5    3    6 ar
     6    4    5 ar
     7    4   16 1
     8    5   10 1
     9    6   27 1
    10    7   11 1
    11    7   19 1
    12    7   24 2
    13    8   21 1
    14    8   23 1
    15    8   25 2
    16    9   22 1
    17    9   26 2
    18    9   27 1
    19   10   12 1
    20   11   13 1
    21   12   17 1
    22   13   18 1
    23   14   15 1
    24   14   16 1
    25   15   19 1
    26   16   17 1
    27   17   18 1
    28   18   19 1
    29   19   20 1
    30   21   22 1
    31    1   28 1
    32    2   29 1
    33    3   30 1
    34   10   31 1
    35   10   32 1
    36   11   33 1
    37   11   34 1
    38   12   35 1
    39   12   36 1
    40   13   37 1
    41   13   38 1
    42   14   39 1
    43   14   40 1
    44   15   41 1
    45   15   42 1
    46   16   43 1
    47   17   44 1
    48   18   45 1
    49   20   46 1
    50   20   47 1
    51   20   48 1
    52   21   49 1
    53   21   50 1
    54   22   51 1
    55   22   52 1
@<TRIPOS>MOLECULE
ZINC72400307_16
   73    76     0     0     0
SMALL
USER_CHARGES

mmff94s_NoEstat = 115.36
@<TRIPOS>ATOM
      1 C1          3.8552   -3.7681    4.2001 C.3       1 <0>         0.0000
      2 C2          4.4421   -5.0119    4.8902 C.3       1 <0>         0.0000
      3 C3          0.8330   -2.9665   -2.9288 C.3       1 <0>         0.0000
      4 C4          1.3417   -3.8796   -1.8055 C.3       1 <0>         0.0000
      5 C5          0.6982   -1.0361   -1.2845 C.3       1 <0>         0.0000
      6 C6          1.7939   -1.1989    1.0000 C.3       1 <0>         0.0000
      7 C7          3.2476   -5.3318    0.1544 C.3       1 <0>         0.0000
      8 C8          3.2655   -4.3008    2.8946 C.3       1 <0>         0.0000
      9 C9          1.1695   -1.9816   -0.1654 C.3       1 <0>         0.0000
     10 C10         2.4041   -4.0807    0.5339 C.3       1 <0>         0.0000
     11 C11         3.0146   -3.3053    1.7513 C.3       1 <0>         0.0000
     12 C12         4.3042   -6.1703    3.8763 C.3       1 <0>         0.0000
     13 C13        -0.0029   -1.7990   -2.4091 C.3       1 <0>         0.2800
     14 C14         2.1242   -2.1190    2.1780 C.3       1 <0>         0.2800
     15 C15         3.5823   -6.2499    1.3474 C.3       1 <0>         0.2800
     16 C16         2.1047   -3.1206   -0.6823 C.3       1 <0>         0.0000
     17 C17         4.2235   -5.4518    2.5023 C.3       1 <0>         0.0000
     18 C18         3.4223   -2.5616   -1.2805 C.3       1 <0>         0.0000
     19 C19         5.6299   -4.9669    2.0567 C.3       1 <0>         0.0000
     20 C20         5.3814   -7.7886    5.4509 C.3       1 <0>         0.0000
     21 C21         6.0115   -9.6392    3.4158 C.3       1 <0>         0.0000
     22 C22         5.2466   -8.3780    3.0122 C.3       1 <0>         0.0000
     23 C23         7.5004   -9.3620    3.5789 C.3       1 <0>         0.2800
     24 C24         5.3922   -7.2237    4.0255 C.3       1 <0>         0.0000
     25 O1         10.0854  -11.9412    4.5959 O.3       1 <0>        -0.8167
     26 O2          9.9518   -9.5933    5.2966 O.2       1 <0>        -0.8167
     27 O3         10.3410  -10.1434    2.9371 O.2       1 <0>        -0.8167
     28 O4         -1.2493   -2.2901   -1.9155 O.3       1 <0>        -0.6800
     29 O5          0.8906   -2.5746    2.7331 O.3       1 <0>        -0.6800
     30 O6          2.3685   -6.8830    1.7510 O.3       1 <0>        -0.6800
     31 O7          8.1515  -10.5637    3.9675 O.3       1 <0>        -0.4637
     32 S1          9.7738  -10.5637    4.2175 S.o2      1 <0>         1.6337
     33 H1          3.0943   -3.2898    4.8255 H         1 <0>         0.0000
     34 H2          4.6419   -3.0284    4.0138 H         1 <0>         0.0000
     35 H3          5.4860   -4.8278    5.1679 H         1 <0>         0.0000
     36 H4          3.8967   -5.2440    5.8117 H         1 <0>         0.0000
     37 H5          1.6812   -2.5821   -3.5061 H         1 <0>         0.0000
     38 H6          0.2310   -3.5730   -3.6166 H         1 <0>         0.0000
     39 H7          0.4860   -4.4121   -1.3701 H         1 <0>         0.0000
     40 H8          1.9834   -4.6440   -2.2588 H         1 <0>         0.0000
     41 H9          0.0006   -0.3046   -0.8573 H         1 <0>         0.0000
     42 H10         1.5418   -0.4663   -1.6890 H         1 <0>         0.0000
     43 H11         2.6964   -0.6717    0.6714 H         1 <0>         0.0000
     44 H12         1.0822   -0.4328    1.3332 H         1 <0>         0.0000
     45 H13         2.6906   -5.9238   -0.5808 H         1 <0>         0.0000
     46 H14         4.1798   -5.0271   -0.3296 H         1 <0>         0.0000
     47 H15         2.2892   -4.7368    3.1605 H         1 <0>         0.0000
     48 H16         0.2606   -2.4598    0.2303 H         1 <0>         0.0000
     49 H17         1.4306   -4.4727    0.8669 H         1 <0>         0.0000
     50 H18         3.9768   -2.8762    1.4534 H         1 <0>         0.0000
     51 H19         3.3454   -6.6684    4.0807 H         1 <0>         0.0000
     52 H20        -0.2310   -1.1121   -3.2319 H         1 <0>         0.0000
     53 H21         2.6276   -1.5298    2.9515 H         1 <0>         0.0000
     54 H22         4.2573   -7.0468    1.0114 H         1 <0>         0.0000
     55 H23         3.9570   -2.0329   -0.5040 H         1 <0>         0.0000
     56 H24         3.1759   -1.8896   -2.0904 H         1 <0>         0.0000
     57 H25         4.0137   -3.3892   -1.6463 H         1 <0>         0.0000
     58 H26         6.2268   -5.8310    1.8034 H         1 <0>         0.0000
     59 H27         6.0810   -4.4244    2.8748 H         1 <0>         0.0000
     60 H28         5.5146   -4.3236    1.1964 H         1 <0>         0.0000
     61 H29         4.4292   -8.2821    5.6722 H         1 <0>         0.0000
     62 H30         5.5334   -6.9960    6.1915 H         1 <0>         0.0000
     63 H31         6.1772   -8.5297    5.5795 H         1 <0>         0.0000
     64 H32         5.6240  -10.0450    4.3572 H         1 <0>         0.0000
     65 H33         5.8695  -10.4266    2.6652 H         1 <0>         0.0000
     66 H34         4.1834   -8.6308    2.9083 H         1 <0>         0.0000
     67 H35         5.5882   -8.0460    2.0236 H         1 <0>         0.0000
     68 H36         7.6742   -8.6061    4.3513 H         1 <0>         0.0000
     69 H37         7.9396   -9.0174    2.6371 H         1 <0>         0.0000
     70 H38         6.3693   -6.7442    3.8670 H         1 <0>         0.0000
     71 H39        -1.6872   -2.7255   -2.6624 H         1 <0>         0.4000
     72 H40         0.4097   -1.7833    3.0193 H         1 <0>         0.4000
     73 H41         2.0540   -7.3856    0.9846 H         1 <0>         0.4000
@<TRIPOS>BOND
     1    1    2 1
     2    1    8 1
     3    2   12 1
     4    3    4 1
     5    3   13 1
     6    4   16 1
     7    5    9 1
     8    5   13 1
     9    6    9 1
    10    6   14 1
    11    7   10 1
    12    7   15 1
    13    8   11 1
    14    8   17 1
    15    9   16 1
    16   10   11 1
    17   10   16 1
    18   11   14 1
    19   12   17 1
    20   12   24 1
    21   13   28 1
    22   14   29 1
    23   15   17 1
    24   15   30 1
    25   16   18 1
    26   17   19 1
    27   20   24 1
    28   21   22 1
    29   21   23 1
    30   22   24 1
    31   23   31 1
    32   25   32 1
    33   26   32 2
    34   27   32 2
    35   31   32 1
    36    1   33 1
    37    1   34 1
    38    2   35 1
    39    2   36 1
    40    3   37 1
    41    3   38 1
    42    4   39 1
    43    4   40 1
    44    5   41 1
    45    5   42 1
    46    6   43 1
    47    6   44 1
    48    7   45 1
    49    7   46 1
    50    8   47 1
    51    9   48 1
    52   10   49 1
    53   11   50 1
    54   12   51 1
    55   13   52 1
    56   14   53 1
    57   15   54 1
    58   18   55 1
    59   18   56 1
    60   18   57 1
    61   19   58 1
    62   19   59 1
    63   19   60 1
    64   20   61 1
    65   20   62 1
    66   20   63 1
    67   21   64 1
    68   21   65 1
    69   22   66 1
    70   22   67 1
    71   23   68 1
    72   23   69 1
    73   24   70 1
    74   28   71 1
    75   29   72 1
    76   30   73 1
@<TRIPOS>MOLECULE
ZINC71767511_1
   61    64     0     0     0
SMALL
USER_CHARGES

mmff94s_NoEstat = 92.78
@<TRIPOS>ATOM
      1 C1          2.2304   -5.4028    0.7994 C.2       1 <0>        -0.1356
      2 C2          3.3441   -1.9671    1.5807 C.2       1 <0>        -0.2882
      3 C3          2.3193   -4.0559    0.7260 C.2       1 <0>        -0.1382
      4 C4          3.1543   -3.2941    1.6851 C.2       1 <0>        -0.1382
      5 C5          3.0727   -6.2019    1.7446 C.2       1 <0>         0.4946
      6 C6          7.7329   -9.1593    6.4775 C.2       1 <0>         0.9060
      7 C7          2.6449   -1.1084    0.5728 C.3       1 <0>         0.1382
      8 C8          4.8193   -3.5775    3.7322 C.3       1 <0>         0.0000
      9 C9          5.3613   -4.8282    4.4408 C.3       1 <0>         0.0000
     10 C10        -0.5208   -2.9925   -1.8254 C.3       1 <0>         0.0000
     11 C11         0.2469   -3.8528   -0.8189 C.3       1 <0>         0.0000
     12 C12         0.6266   -0.9232   -0.9391 C.3       1 <0>         0.0000
     13 C13         3.7116   -4.1120    2.8243 C.3       1 <0>         0.1382
     14 C14         1.3582   -1.7907    0.0923 C.3       1 <0>         0.0000
     15 C15         4.7320   -6.0446    3.7253 C.3       1 <0>         0.0000
     16 C16        -0.7009   -1.5575   -1.3461 C.3       1 <0>         0.2800
     17 C17         1.6207   -3.2493   -0.3992 C.3       1 <0>         0.1382
     18 C18         4.2587   -5.4790    2.3681 C.3       1 <0>         0.0610
     19 C19         2.5776   -3.2858   -1.6201 C.3       1 <0>         0.0000
     20 C20         5.3928   -5.4026    1.3267 C.3       1 <0>         0.0000
     21 C21         5.0339   -8.3832    2.8877 C.3       1 <0>         0.0000
     22 C22         7.3400   -8.6092    5.1035 C.3       1 <0>        -0.1060
     23 C23         6.0865   -7.7363    5.0751 C.3       1 <0>         0.0000
     24 C24         5.6806   -7.2359    3.6722 C.3       1 <0>         0.0000
     25 O1          8.8221   -9.7948    6.5299 O.co2     1 <0>        -0.9000
     26 O2          2.8369   -7.3931    1.9236 O.2       1 <0>        -0.5700
     27 O3          6.8979   -8.9195    7.3959 O.co2     1 <0>        -0.9000
     28 O4         -1.2938   -0.7984   -2.3944 O.3       1 <0>        -0.6800
     29 H1          1.6224   -5.9883    0.1202 H         1 <0>         0.1500
     30 H2          3.9723   -1.4439    2.2957 H         1 <0>         0.1500
     31 H3          2.3852   -0.1545    1.0478 H         1 <0>         0.0000
     32 H4          3.3238   -0.8769   -0.2551 H         1 <0>         0.0000
     33 H5          4.4425   -2.8432    4.4521 H         1 <0>         0.0000
     34 H6          5.6190   -3.0971    3.1567 H         1 <0>         0.0000
     35 H7          6.4560   -4.8382    4.3907 H         1 <0>         0.0000
     36 H8          5.0839   -4.8284    5.5008 H         1 <0>         0.0000
     37 H9         -0.0164   -3.0006   -2.7996 H         1 <0>         0.0000
     38 H10        -1.5051   -3.4400   -2.0127 H         1 <0>         0.0000
     39 H11        -0.3794   -3.9898    0.0731 H         1 <0>         0.0000
     40 H12         0.3753   -4.8459   -1.2659 H         1 <0>         0.0000
     41 H13         0.4299    0.0735   -0.5225 H         1 <0>         0.0000
     42 H14         1.2499   -0.7437   -1.8235 H         1 <0>         0.0000
     43 H15         2.8444   -4.2908    3.4854 H         1 <0>         0.0000
     44 H16         0.6887   -1.8563    0.9661 H         1 <0>         0.0000
     45 H17         3.8508   -6.3604    4.3032 H         1 <0>         0.0000
     46 H18        -1.3913   -1.5420   -0.4941 H         1 <0>         0.0000
     47 H19         2.1245   -2.7316   -2.4299 H         1 <0>         0.0000
     48 H20         2.7287   -4.3162   -1.9088 H         1 <0>         0.0000
     49 H21         3.5171   -2.8337   -1.3354 H         1 <0>         0.0000
     50 H22         6.2415   -4.8889    1.7635 H         1 <0>         0.0000
     51 H23         5.0405   -4.8582    0.4581 H         1 <0>         0.0000
     52 H24         5.6790   -6.4080    1.0397 H         1 <0>         0.0000
     53 H25         4.1217   -8.7325    3.3831 H         1 <0>         0.0000
     54 H26         5.7180   -9.2353    2.8123 H         1 <0>         0.0000
     55 H27         4.7700   -8.0695    1.8719 H         1 <0>         0.0000
     56 H28         7.2418   -9.4353    4.3902 H         1 <0>         0.0000
     57 H29         8.1897   -8.0069    4.7573 H         1 <0>         0.0000
     58 H30         6.2538   -6.8720    5.7311 H         1 <0>         0.0000
     59 H31         5.2508   -8.2954    5.5151 H         1 <0>         0.0000
     60 H32         6.5841   -6.9347    3.1251 H         1 <0>         0.0000
     61 H33        -2.1486   -1.2138   -2.5893 H         1 <0>         0.4000
@<TRIPOS>BOND
     1    1    3 2
     2    1    5 1
     3    2    4 2
     4    2    7 1
     5    3    4 1
     6    3   17 1
     7    4   13 1
     8    5   18 1
     9    5   26 2
    10    6   22 1
    11    6   25 1
    12    6   27 2
    13    7   14 1
    14    8    9 1
    15    8   13 1
    16    9   15 1
    17   10   11 1
    18   10   16 1
    19   11   17 1
    20   12   14 1
    21   12   16 1
    22   13   18 1
    23   14   17 1
    24   15   18 1
    25   15   24 1
    26   16   28 1
    27   17   19 1
    28   18   20 1
    29   21   24 1
    30   22   23 1
    31   23   24 1
    32    1   29 1
    33    2   30 1
    34    7   31 1
    35    7   32 1
    36    8   33 1
    37    8   34 1
    38    9   35 1
    39    9   36 1
    40   10   37 1
    41   10   38 1
    42   11   39 1
    43   11   40 1
    44   12   41 1
    45   12   42 1
    46   13   43 1
    47   14   44 1
    48   15   45 1
    49   16   46 1
    50   19   47 1
    51   19   48 1
    52   19   49 1
    53   20   50 1
    54   20   51 1
    55   20   52 1
    56   21   53 1
    57   21   54 1
    58   21   55 1
    59   22   56 1
    60   22   57 1
    61   23   58 1
    62   23   59 1
    63   24   60 1
    64   28   61 1
@<TRIPOS>MOLECULE
ZINC70666191_27
   76    80     0     0     0
SMALL
USER_CHARGES

mmff94s_NoEstat = 126.14
@<TRIPOS>ATOM
      1 C1          9.0487  -12.6089    9.2091 C.2       1 <0>         0.0772
      2 C2          8.3844  -11.8179   10.1229 C.2       1 <0>        -0.1100
      3 C3          8.0407  -11.2587    7.8051 C.2       1 <0>         0.4421
      4 C4          6.7149   -9.5141    6.5635 C.2       1 <0>         0.5690
      5 C5          4.0043   -3.9958    4.0010 C.3       1 <0>         0.0000
      6 C6          4.4756   -5.3431    4.5767 C.3       1 <0>         0.0000
      7 C7          0.0032   -3.6952   -1.7094 C.3       1 <0>         0.0000
      8 C8          1.4606   -3.3610   -1.9962 C.3       1 <0>         0.0000
      9 C9         -0.0534   -1.9113    0.0578 C.3       1 <0>         0.0000
     10 C10         2.0923   -1.0058    1.0849 C.3       1 <0>         0.0000
     11 C11         3.1559   -5.1726   -0.1360 C.3       1 <0>         0.0000
     12 C12         3.3453   -4.3635    2.6723 C.3       1 <0>         0.0000
     13 C13         1.4357   -1.5855   -0.1843 C.3       1 <0>         0.0000
     14 C14         2.4531   -3.8743    0.3619 C.3       1 <0>         0.0000
     15 C15         3.1657   -3.2628    1.6151 C.3       1 <0>         0.0000
     16 C16         4.2223   -6.3958    3.4730 C.3       1 <0>         0.0000
     17 C17        -0.7371   -2.4726   -1.1851 C.3       1 <0>         0.2800
     18 C18         2.4089   -2.0398    2.1690 C.3       1 <0>         0.2800
     19 C19         3.4610   -6.2070    0.9682 C.3       1 <0>         0.2800
     20 C20         2.2369   -2.7959   -0.7697 C.3       1 <0>         0.0000
     21 C21         4.1848   -5.5600    2.1665 C.3       1 <0>         0.0000
     22 C22         3.5935   -2.2875   -1.3278 C.3       1 <0>         0.0000
     23 C23         5.6207   -5.1645    1.7250 C.3       1 <0>         0.0000
     24 C24         4.6737   -8.7390    2.7188 C.3       1 <0>         0.0000
     25 C25         6.4782   -9.1202    5.1111 C.3       1 <0>         0.0610
     26 C26         5.5378   -7.9220    4.9741 C.3       1 <0>         0.0000
     27 C27         5.2174   -7.5467    3.5127 C.3       1 <0>         0.0000
     28 N1          8.8525  -12.2900    7.8796 N.2       1 <0>        -0.5653
     29 N2          7.5749  -10.6064    6.6389 N.am      1 <0>        -0.4940
     30 O1          6.1967   -8.9082    7.4957 O.2       1 <0>        -0.5700
     31 O2         -2.0814   -2.8240   -0.8751 O.3       1 <0>        -0.6800
     32 O3          1.1902   -2.4144    2.8045 O.3       1 <0>        -0.6800
     33 O4          2.2492   -6.8526    1.3572 O.3       1 <0>        -0.6800
     34 S1          7.4757  -10.6219    9.2952 S.3       1 <0>        -0.0800
     35 H1          9.6940  -13.4393    9.4623 H         1 <0>         0.1500
     36 H2          8.3895  -11.8836   11.2015 H         1 <0>         0.1500
     37 H3          3.3095   -3.4982    4.6846 H         1 <0>         0.0000
     38 H4          4.8578   -3.3241    3.8542 H         1 <0>         0.0000
     39 H5          5.5341   -5.2811    4.8533 H         1 <0>         0.0000
     40 H6          3.9166   -5.5998    5.4834 H         1 <0>         0.0000
     41 H7         -0.4842   -4.0500   -2.6260 H         1 <0>         0.0000
     42 H8         -0.0742   -4.5270   -0.9991 H         1 <0>         0.0000
     43 H9          1.9628   -4.2413   -2.4112 H         1 <0>         0.0000
     44 H10         1.4765   -2.6142   -2.8031 H         1 <0>         0.0000
     45 H11        -0.1848   -2.6270    0.8748 H         1 <0>         0.0000
     46 H12        -0.5862   -1.0071    0.3801 H         1 <0>         0.0000
     47 H13         3.0254   -0.5049    0.8000 H         1 <0>         0.0000
     48 H14         1.4410   -0.2262    1.5004 H         1 <0>         0.0000
     49 H15         2.5138   -5.6618   -0.8771 H         1 <0>         0.0000
     50 H16         4.0910   -4.9182   -0.6433 H         1 <0>         0.0000
     51 H17         2.3401   -4.7303    2.9307 H         1 <0>         0.0000
     52 H18         1.4470   -0.7809   -0.9344 H         1 <0>         0.0000
     53 H19         1.4581   -4.1935    0.6984 H         1 <0>         0.0000
     54 H20         4.1570   -2.9043    1.3202 H         1 <0>         0.0000
     55 H21         3.2274   -6.8250    3.6570 H         1 <0>         0.0000
     56 H22        -0.7760   -1.7012   -1.9626 H         1 <0>         0.0000
     57 H23         3.0207   -1.5452    2.9333 H         1 <0>         0.0000
     58 H24         4.0888   -6.9982    0.5424 H         1 <0>         0.0000
     59 H25         4.1722   -1.8833   -0.5097 H         1 <0>         0.0000
     60 H26         3.3971   -1.5214   -2.0639 H         1 <0>         0.0000
     61 H27         4.1127   -3.1199   -1.7806 H         1 <0>         0.0000
     62 H28         6.1332   -6.0539    1.3886 H         1 <0>         0.0000
     63 H29         6.1330   -4.7321    2.5720 H         1 <0>         0.0000
     64 H30         5.5468   -4.4457    0.9221 H         1 <0>         0.0000
     65 H31         3.7428   -9.1139    3.1576 H         1 <0>         0.0000
     66 H32         5.3986   -9.5603    2.7127 H         1 <0>         0.0000
     67 H33         4.4771   -8.4741    1.6755 H         1 <0>         0.0000
     68 H34         7.4540   -8.8929    4.6675 H         1 <0>         0.0000
     69 H35         6.0567   -9.9854    4.5854 H         1 <0>         0.0000
     70 H36         5.9712   -7.0569    5.4929 H         1 <0>         0.0000
     71 H37         4.5964   -8.1498    5.4915 H         1 <0>         0.0000
     72 H38         6.1477   -7.2142    3.0286 H         1 <0>         0.0000
     73 H39         7.9165  -10.9901    5.7603 H         1 <0>         0.3700
     74 H40        -2.5105   -2.0182   -0.5469 H         1 <0>         0.4000
     75 H41         0.8171   -1.6048    3.1867 H         1 <0>         0.4000
     76 H42         1.9010   -7.2843    0.5625 H         1 <0>         0.4000
@<TRIPOS>BOND
     1    1    2 2
     2    1   28 1
     3    2   34 1
     4    3   28 2
     5    3   29 1
     6    3   34 1
     7    4   25 1
     8    4   29 am
     9    4   30 2
    10    5    6 1
    11    5   12 1
    12    6   16 1
    13    7    8 1
    14    7   17 1
    15    8   20 1
    16    9   13 1
    17    9   17 1
    18   10   13 1
    19   10   18 1
    20   11   14 1
    21   11   19 1
    22   12   15 1
    23   12   21 1
    24   13   20 1
    25   14   15 1
    26   14   20 1
    27   15   18 1
    28   16   21 1
    29   16   27 1
    30   17   31 1
    31   18   32 1
    32   19   21 1
    33   19   33 1
    34   20   22 1
    35   21   23 1
    36   24   27 1
    37   25   26 1
    38   26   27 1
    39    1   35 1
    40    2   36 1
    41    5   37 1
    42    5   38 1
    43    6   39 1
    44    6   40 1
    45    7   41 1
    46    7   42 1
    47    8   43 1
    48    8   44 1
    49    9   45 1
    50    9   46 1
    51   10   47 1
    52   10   48 1
    53   11   49 1
    54   11   50 1
    55   12   51 1
    56   13   52 1
    57   14   53 1
    58   15   54 1
    59   16   55 1
    60   17   56 1
    61   18   57 1
    62   19   58 1
    63   22   59 1
    64   22   60 1
    65   22   61 1
    66   23   62 1
    67   23   63 1
    68   23   64 1
    69   24   65 1
    70   24   66 1
    71   24   67 1
    72   25   68 1
    73   25   69 1
    74   26   70 1
    75   26   71 1
    76   27   72 1
    77   29   73 1
    78   31   74 1
    79   32   75 1
    80   33   76 1
@<TRIPOS>MOLECULE
ZINC04026083_11
   64    67     0     0     0
SMALL
USER_CHARGES

mmff94s_NoEstat = 98.49
@<TRIPOS>ATOM
      1 C1          1.6419   -1.3209    1.4573 C.2       1 <0>        -0.2882
      2 C2          1.2633   -1.7712    0.2475 C.2       1 <0>        -0.2764
      3 C3          7.9427   -9.0046    6.4725 C.2       1 <0>         0.9060
      4 C4          2.5410   -2.0524    2.4042 C.3       1 <0>         0.1382
      5 C5          0.2032   -1.0091   -0.5151 C.3       1 <0>         0.1382
      6 C6          4.5052   -3.8208    4.0492 C.3       1 <0>         0.0000
      7 C7          2.6901   -5.4501    0.4150 C.3       1 <0>         0.0000
      8 C8          5.0390   -5.1185    4.6840 C.3       1 <0>         0.0000
      9 C9          0.0455   -2.8498   -2.2631 C.3       1 <0>         0.0000
     10 C10         0.6116   -3.7345   -1.1441 C.3       1 <0>         0.0000
     11 C11         3.1816   -6.3324    1.5766 C.3       1 <0>         0.0000
     12 C12         3.1600   -3.3403    1.8382 C.3       1 <0>         0.0000
     13 C13         2.1741   -4.0549    0.8619 C.3       1 <0>         0.0000
     14 C14         3.5518   -4.3056    2.9613 C.3       1 <0>         0.0000
     15 C15         4.5187   -6.2789    3.8031 C.3       1 <0>         0.0000
     16 C16         0.1434   -1.3463   -2.0002 C.3       1 <0>         0.2800
     17 C17         1.7664   -3.0988   -0.3278 C.3       1 <0>         0.1382
     18 C18         4.2131   -5.6000    2.4455 C.3       1 <0>         0.0000
     19 C19         2.9740   -2.8331   -1.2607 C.3       1 <0>         0.0000
     20 C20         5.5118   -5.3671    1.6336 C.3       1 <0>         0.0000
     21 C21         4.7303   -8.7110    3.2536 C.3       1 <0>         0.0000
     22 C22         7.3410   -8.6440    5.1114 C.3       1 <0>        -0.1060
     23 C23         6.0834   -7.7777    5.1536 C.3       1 <0>         0.0000
     24 C24         5.4665   -7.4693    3.7716 C.3       1 <0>         0.0000
     25 O1          9.0378   -9.6317    6.4464 O.co2     1 <0>        -0.9000
     26 O2          7.2497   -8.6392    7.4649 O.co2     1 <0>        -0.9000
     27 O3         -0.9872   -0.7091   -2.5927 O.3       1 <0>        -0.6800
     28 H1          1.2876   -0.3507    1.8022 H         1 <0>         0.1500
     29 H2          3.3510   -1.3731    2.7132 H         1 <0>         0.0000
     30 H3          1.9609   -2.2705    3.3153 H         1 <0>         0.0000
     31 H4         -0.7927   -1.1896   -0.0712 H         1 <0>         0.0000
     32 H5          0.3917    0.0720   -0.3933 H         1 <0>         0.0000
     33 H6          3.9977   -3.1951    4.7902 H         1 <0>         0.0000
     34 H7          5.3294   -3.2340    3.6288 H         1 <0>         0.0000
     35 H8          3.5064   -5.3465   -0.3050 H         1 <0>         0.0000
     36 H9          1.8911   -5.9910   -0.1037 H         1 <0>         0.0000
     37 H10         6.1337   -5.0900    4.7249 H         1 <0>         0.0000
     38 H11         4.6770   -5.2299    5.7122 H         1 <0>         0.0000
     39 H12         0.5529   -3.0918   -3.2182 H         1 <0>         0.0000
     40 H13        -1.0173   -3.1265   -2.4148 H         1 <0>         0.0000
     41 H14        -0.2164   -4.0082   -0.4717 H         1 <0>         0.0000
     42 H15         0.9424   -4.6786   -1.6019 H         1 <0>         0.0000
     43 H16         2.3146   -6.6253    2.1836 H         1 <0>         0.0000
     44 H17         3.6043   -7.2624    1.1762 H         1 <0>         0.0000
     45 H18         4.0702   -3.0526    1.2842 H         1 <0>         0.0000
     46 H19         1.2657   -4.2500    1.4464 H         1 <0>         0.0000
     47 H20         2.6173   -4.5813    3.4774 H         1 <0>         0.0000
     48 H21         3.5729   -6.6305    4.2412 H         1 <0>         0.0000
     49 H22         1.0157   -0.9507   -2.5061 H         1 <0>         0.0000
     50 H23         3.3201   -3.7771   -1.6603 H         1 <0>         0.0000
     51 H24         3.7603   -2.3608   -0.6870 H         1 <0>         0.0000
     52 H25         2.6568   -2.1821   -2.0646 H         1 <0>         0.0000
     53 H26         6.2260   -4.8507    2.2607 H         1 <0>         0.0000
     54 H27         5.2756   -4.7674    0.7649 H         1 <0>         0.0000
     55 H28         5.9076   -6.3264    1.3285 H         1 <0>         0.0000
     56 H29         3.9052   -8.9859    3.9193 H         1 <0>         0.0000
     57 H30         5.4100   -9.5679    3.1956 H         1 <0>         0.0000
     58 H31         4.3170   -8.5379    2.2540 H         1 <0>         0.0000
     59 H32         7.1512   -9.5586    4.5384 H         1 <0>         0.0000
     60 H33         8.1200   -8.0976    4.5642 H         1 <0>         0.0000
     61 H34         6.3322   -6.8333    5.6549 H         1 <0>         0.0000
     62 H35         5.3314   -8.2687    5.7846 H         1 <0>         0.0000
     63 H36         6.2759   -7.2509    3.0611 H         1 <0>         0.0000
     64 H37        -0.9808   -0.9531   -3.5312 H         1 <0>         0.4000
@<TRIPOS>BOND
     1    1    2 2
     2    1    4 1
     3    2    5 1
     4    2   17 1
     5    3   22 1
     6    3   25 1
     7    3   26 2
     8    4   12 1
     9    5   16 1
    10    6    8 1
    11    6   14 1
    12    7   11 1
    13    7   13 1
    14    8   15 1
    15    9   10 1
    16    9   16 1
    17   10   17 1
    18   11   18 1
    19   12   13 1
    20   12   14 1
    21   13   17 1
    22   14   18 1
    23   15   18 1
    24   15   24 1
    25   16   27 1
    26   17   19 1
    27   18   20 1
    28   21   24 1
    29   22   23 1
    30   23   24 1
    31    1   28 1
    32    4   29 1
    33    4   30 1
    34    5   31 1
    35    5   32 1
    36    6   33 1
    37    6   34 1
    38    7   35 1
    39    7   36 1
    40    8   37 1
    41    8   38 1
    42    9   39 1
    43    9   40 1
    44   10   41 1
    45   10   42 1
    46   11   43 1
    47   11   44 1
    48   12   45 1
    49   13   46 1
    50   14   47 1
    51   15   48 1
    52   16   49 1
    53   19   50 1
    54   19   51 1
    55   19   52 1
    56   20   53 1
    57   20   54 1
    58   20   55 1
    59   21   56 1
    60   21   57 1
    61   21   58 1
    62   22   59 1
    63   22   60 1
    64   23   61 1
    65   23   62 1
    66   24   63 1
    67   27   64 1
@<TRIPOS>MOLECULE
ZINC06036223_2
   64    67     0     0     0
SMALL
USER_CHARGES

mmff94s_NoEstat = 90.44
@<TRIPOS>ATOM
      1 C1          1.6525   -1.3101    1.3597 C.2       1 <0>        -0.2882
      2 C2          1.3778   -1.7424    0.1168 C.2       1 <0>        -0.2764
      3 C3          7.8751   -9.0884    6.5208 C.2       1 <0>         0.9060
      4 C4          2.4180   -2.0871    2.3821 C.3       1 <0>         0.1382
      5 C5          0.6155   -0.8539   -0.8390 C.3       1 <0>         0.1382
      6 C6          4.4960   -3.7290    4.0303 C.3       1 <0>         0.0000
      7 C7          2.8372   -5.4241    0.3536 C.3       1 <0>         0.0000
      8 C8          5.0980   -4.9993    4.6594 C.3       1 <0>         0.0000
      9 C9         -0.1249   -2.8902   -2.1201 C.3       1 <0>         0.0000
     10 C10         0.5878   -3.7939   -1.1149 C.3       1 <0>         0.0000
     11 C11         3.3555   -6.2877    1.5166 C.3       1 <0>         0.0000
     12 C12         3.1581   -3.3027    1.8041 C.3       1 <0>         0.0000
     13 C13         2.2416   -4.0602    0.7996 C.3       1 <0>         0.0000
     14 C14         3.5900   -4.2569    2.9222 C.3       1 <0>         0.0000
     15 C15         4.6582   -6.1789    3.7606 C.3       1 <0>         0.0000
     16 C16        -0.5664   -1.5830   -1.4719 C.3       1 <0>         0.2800
     17 C17         1.7989   -3.1263   -0.3973 C.3       1 <0>         0.1382
     18 C18         4.3325   -5.5052    2.4052 C.3       1 <0>         0.0000
     19 C19         2.9506   -2.9287   -1.4123 C.3       1 <0>         0.0000
     20 C20         5.6258   -5.1872    1.6146 C.3       1 <0>         0.0000
     21 C21         5.0190   -8.5889    3.1912 C.3       1 <0>         0.0000
     22 C22         7.2883   -8.7536    5.1466 C.3       1 <0>        -0.1060
     23 C23         6.2902   -7.5974    5.1182 C.3       1 <0>         0.0000
     24 C24         5.6744   -7.3115    3.7309 C.3       1 <0>         0.0000
     25 O1          8.7765   -9.9716    6.5389 O.co2     1 <0>        -0.9000
     26 O2          7.3648   -8.4417    7.4798 O.co2     1 <0>        -0.9000
     27 O3         -1.1729   -0.7472   -2.4525 O.3       1 <0>        -0.6800
     28 H1          1.3096   -0.3270    1.6737 H         1 <0>         0.1500
     29 H2          3.1454   -1.4193    2.8594 H         1 <0>         0.0000
     30 H3          1.7141   -2.3988    3.1639 H         1 <0>         0.0000
     31 H4          0.2446    0.0518   -0.3417 H         1 <0>         0.0000
     32 H5          1.2939   -0.4875   -1.6197 H         1 <0>         0.0000
     33 H6          3.9402   -3.1440    4.7702 H         1 <0>         0.0000
     34 H7          5.2896   -3.0884    3.6295 H         1 <0>         0.0000
     35 H8          3.6581   -5.2728   -0.3530 H         1 <0>         0.0000
     36 H9          2.0756   -6.0019   -0.1821 H         1 <0>         0.0000
     37 H10         6.1885   -4.9065    4.7143 H         1 <0>         0.0000
     38 H11         4.7312   -5.1426    5.6819 H         1 <0>         0.0000
     39 H12         0.5220   -2.6882   -2.9826 H         1 <0>         0.0000
     40 H13        -1.0003   -3.4088   -2.5301 H         1 <0>         0.0000
     41 H14        -0.1514   -4.1129   -0.3672 H         1 <0>         0.0000
     42 H15         0.9077   -4.7024   -1.6388 H         1 <0>         0.0000
     43 H16         2.4965   -6.6303    2.1079 H         1 <0>         0.0000
     44 H17         3.8347   -7.1897    1.1174 H         1 <0>         0.0000
     45 H18         4.0471   -2.9320    1.2813 H         1 <0>         0.0000
     46 H19         1.3276   -4.3135    1.3614 H         1 <0>         0.0000
     47 H20         2.6647   -4.5915    3.4217 H         1 <0>         0.0000
     48 H21         3.7287   -6.5897    4.1818 H         1 <0>         0.0000
     49 H22        -1.3259   -1.7898   -0.7083 H         1 <0>         0.0000
     50 H23         3.2581   -3.8974   -1.7837 H         1 <0>         0.0000
     51 H24         3.7772   -2.4424   -0.9115 H         1 <0>         0.0000
     52 H25         2.5947   -2.3130   -2.2278 H         1 <0>         0.0000
     53 H26         6.2995   -4.6366    2.2573 H         1 <0>         0.0000
     54 H27         5.3666   -4.5927    0.7489 H         1 <0>         0.0000
     55 H28         6.0820   -6.1180    1.3055 H         1 <0>         0.0000
     56 H29         4.2029   -8.9184    3.8429 H         1 <0>         0.0000
     57 H30         5.7485   -9.4039    3.1345 H         1 <0>         0.0000
     58 H31         4.6096   -8.4300    2.1878 H         1 <0>         0.0000
     59 H32         6.8389   -9.6522    4.7091 H         1 <0>         0.0000
     60 H33         8.1384   -8.4935    4.5027 H         1 <0>         0.0000
     61 H34         6.7991   -6.6940    5.4786 H         1 <0>         0.0000
     62 H35         5.4858   -7.8011    5.8367 H         1 <0>         0.0000
     63 H36         6.4788   -7.0391    3.0335 H         1 <0>         0.0000
     64 H37        -1.4684    0.0531   -1.9905 H         1 <0>         0.4000
@<TRIPOS>BOND
     1    1    2 2
     2    1    4 1
     3    2    5 1
     4    2   17 1
     5    3   22 1
     6    3   25 1
     7    3   26 2
     8    4   12 1
     9    5   16 1
    10    6    8 1
    11    6   14 1
    12    7   11 1
    13    7   13 1
    14    8   15 1
    15    9   10 1
    16    9   16 1
    17   10   17 1
    18   11   18 1
    19   12   13 1
    20   12   14 1
    21   13   17 1
    22   14   18 1
    23   15   18 1
    24   15   24 1
    25   16   27 1
    26   17   19 1
    27   18   20 1
    28   21   24 1
    29   22   23 1
    30   23   24 1
    31    1   28 1
    32    4   29 1
    33    4   30 1
    34    5   31 1
    35    5   32 1
    36    6   33 1
    37    6   34 1
    38    7   35 1
    39    7   36 1
    40    8   37 1
    41    8   38 1
    42    9   39 1
    43    9   40 1
    44   10   41 1
    45   10   42 1
    46   11   43 1
    47   11   44 1
    48   12   45 1
    49   13   46 1
    50   14   47 1
    51   15   48 1
    52   16   49 1
    53   19   50 1
    54   19   51 1
    55   19   52 1
    56   20   53 1
    57   20   54 1
    58   20   55 1
    59   21   56 1
    60   21   57 1
    61   21   58 1
    62   22   59 1
    63   22   60 1
    64   23   61 1
    65   23   62 1
    66   24   63 1
    67   27   64 1
@<TRIPOS>MOLECULE
ZINC01845398_0
   18    17     0     0     0
SMALL
USER_CHARGES

mmff94s_NoEstat = 5.88
@<TRIPOS>ATOM
      1 C1          4.4789   -8.6394    2.7851 C.3       1 <0>         0.0000
      2 C2          4.9367   -8.9962    4.1902 C.3       1 <0>         0.0000
      3 C3          6.1576   -8.1799    4.6049 C.3       1 <0>         0.0000
      4 C4          6.5931   -8.5029    6.0271 C.3       1 <0>         0.2800
      5 O1          9.5161   -6.8842    7.8172 O.3       1 <0>        -0.8167
      6 O2          8.8286   -9.2386    7.8914 O.2       1 <0>        -0.8167
      7 O3          7.3357   -7.5020    8.7728 O.2       1 <0>        -0.8167
      8 O4          7.7201   -7.7021    6.3552 O.3       1 <0>        -0.4637
      9 S1          8.4090   -7.8389    7.8388 S.o2      1 <0>         1.6337
     10 H1          5.2796   -8.8062    2.0574 H         1 <0>         0.0000
     11 H2          3.6144   -9.2423    2.4893 H         1 <0>         0.0000
     12 H3          4.1903   -7.5849    2.7368 H         1 <0>         0.0000
     13 H4          4.1139   -8.8183    4.8924 H         1 <0>         0.0000
     14 H5          5.1723  -10.0661    4.2308 H         1 <0>         0.0000
     15 H6          6.9919   -8.3685    3.9179 H         1 <0>         0.0000
     16 H7          5.9416   -7.1070    4.5260 H         1 <0>         0.0000
     17 H8          5.7917   -8.2850    6.7401 H         1 <0>         0.0000
     18 H9          6.8760   -9.5564    6.1195 H         1 <0>         0.0000
@<TRIPOS>BOND
     1    1    2 1
     2    2    3 1
     3    3    4 1
     4    4    8 1
     5    5    9 1
     6    6    9 2
     7    7    9 2
     8    8    9 1
     9    1   10 1
    10    1   11 1
    11    1   12 1
    12    2   13 1
    13    2   14 1
    14    3   15 1
    15    3   16 1
    16    4   17 1
    17    4   18 1
@<TRIPOS>MOLECULE
ZINC22058386_26
   35    37     0     0     0
SMALL
USER_CHARGES

mmff94s_NoEstat = 76.75
@<TRIPOS>ATOM
      1 C1          5.7315   -7.4059    6.1029 C.ar      1 <0>        -0.1500
      2 C2          5.6086   -8.6674    4.0460 C.ar      1 <0>        -0.1500
      3 C3          2.7730   -5.6809    0.8458 C.ar      1 <0>        -0.1500
      4 C4          6.4614   -8.4380    6.6924 C.ar      1 <0>        -0.1500
      5 C5          6.3386   -9.6995    4.6355 C.ar      1 <0>        -0.1500
      6 C6          2.2201   -4.5694    0.2090 C.ar      1 <0>        -0.1500
      7 C7          3.1438   -3.1321    1.9142 C.ar      1 <0>        -0.1500
      8 C8          5.3051   -7.5206    4.7797 C.ar      1 <0>        -0.1435
      9 C9          3.5109   -5.5288    2.0274 C.ar      1 <0>        -0.1435
     10 C10         3.7096   -4.2422    2.5464 C.ar      1 <0>         0.0825
     11 C11         6.7650   -9.5848    5.9586 C.ar      1 <0>         0.0825
     12 C12         2.4020   -3.2965    0.7454 C.ar      1 <0>         0.0825
     13 C13         4.0979   -6.7380    2.7023 C.3       1 <0>         0.1435
     14 C14         5.2609   -5.0627    4.1272 C.3       1 <0>         0.2800
     15 C15         4.5128   -6.3999    4.1398 C.3       1 <0>         0.1435
     16 O1          8.2958  -12.8429    7.0269 O.3       1 <0>        -0.8167
     17 O2          7.6933  -12.2526    4.7277 O.2       1 <0>        -0.8167
     18 O3          5.9406  -12.5141    6.4420 O.2       1 <0>        -0.8167
     19 O4          4.4173   -3.9884    3.6937 O.3       1 <0>        -0.3625
     20 O5          1.8577   -2.2133    0.1265 O.3       1 <0>        -0.5325
     21 O6          7.4782  -10.5909    6.5344 O.3       1 <0>        -0.2662
     22 S1          7.3338  -12.1839    6.1436 S.o2      1 <0>         1.6337
     23 H1          5.4994   -6.5159    6.6817 H         1 <0>         0.1500
     24 H2          5.2797   -8.7660    3.0147 H         1 <0>         0.1500
     25 H3          2.6203   -6.6688    0.4182 H         1 <0>         0.1500
     26 H4          6.7913   -8.3436    7.7233 H         1 <0>         0.1500
     27 H5          6.5709  -10.5907    4.0590 H         1 <0>         0.1500
     28 H6          1.6463   -4.7039   -0.7039 H         1 <0>         0.1500
     29 H7          3.2862   -2.1369    2.3288 H         1 <0>         0.1500
     30 H8          3.3700   -7.5590    2.7139 H         1 <0>         0.0000
     31 H9          4.9640   -7.0725    2.1158 H         1 <0>         0.0000
     32 H10         5.6031   -4.8108    5.1381 H         1 <0>         0.0000
     33 H11         6.1544   -5.0957    3.4893 H         1 <0>         0.0000
     34 H12         3.5812   -6.2706    4.7441 H         1 <0>         0.0000
     35 H13         2.0706   -1.4034    0.6172 H         1 <0>         0.4500
@<TRIPOS>BOND
     1    1    4 ar
     2    1    8 ar
     3    2    5 ar
     4    2    8 ar
     5    3    6 ar
     6    3    9 ar
     7    4   11 ar
     8    5   11 ar
     9    6   12 ar
    10    7   10 ar
    11    7   12 ar
    12    8   15 1
    13    9   10 ar
    14    9   13 1
    15   10   19 1
    16   11   21 1
    17   12   20 1
    18   13   15 1
    19   14   15 1
    20   14   19 1
    21   16   22 1
    22   17   22 2
    23   18   22 2
    24   21   22 1
    25    1   23 1
    26    2   24 1
    27    3   25 1
    28    4   26 1
    29    5   27 1
    30    6   28 1
    31    7   29 1
    32   13   30 1
    33   13   31 1
    34   14   32 1
    35   14   33 1
    36   15   34 1
    37   20   35 1
@<TRIPOS>MOLECULE
ZINC12362710_1
   44    47     0     0     0
SMALL
USER_CHARGES

mmff94s_NoEstat = 110.97
@<TRIPOS>ATOM
      1 C1         -0.2548   -2.8490   -1.9989 C.ar      1 <0>        -0.1500
      2 C2         -0.2173   -1.4679   -1.8603 C.ar      1 <0>        -0.1500
      3 C3          0.5370   -3.6486   -1.1770 C.ar      1 <0>        -0.1500
      4 C4          7.6329   -7.6447    6.1537 C.ar      1 <0>        -0.1500
      5 C5          6.0230   -9.4431    6.0483 C.ar      1 <0>        -0.1500
      6 C6          6.7377   -6.8045    5.4916 C.ar      1 <0>        -0.1500
      7 C7          5.1279   -8.6030    5.3861 C.ar      1 <0>        -0.1500
      8 C8          0.6111   -0.8846   -0.9003 C.ar      1 <0>        -0.1500
      9 C9          1.3757   -3.0735   -0.2067 C.ar      1 <0>         0.0284
     10 C10         7.2755   -8.9640    6.4321 C.ar      1 <0>        -0.1790
     11 C11         5.4852   -7.2837    5.1077 C.ar      1 <0>         0.1790
     12 C12         1.4165   -1.6764   -0.0625 C.ar      1 <0>         0.1170
     13 C13         3.8097   -4.2408    2.4088 C.2       1 <0>        -0.1500
     14 C14         2.2139   -3.8999    0.6633 C.2       1 <0>         0.0483
     15 C15         3.0134   -3.3593    1.5889 C.2       1 <0>         0.0144
     16 C16         3.7568   -5.5693    2.2525 C.2       1 <0>         0.0288
     17 C17         3.0802   -1.8765    1.7693 C.2       1 <0>         0.6156
     18 C18         2.8729   -6.1659    1.2267 C.2       1 <0>         0.7056
     19 C19         8.2200   -9.8503    7.1310 C.2       1 <0>         0.9790
     20 C20         4.6042   -6.3796    3.1334 C.2       1 <0>         0.3746
     21 C21         5.6416   -7.2651    2.4620 C.3       1 <0>         0.0610
     22 C22         2.3113    0.3563    1.0702 C.3       1 <0>         0.3001
     23 N1          4.5851   -6.4385    4.4402 N.2       1 <0>        -0.6290
     24 N2          2.2745   -1.0980    0.9297 N.am      1 <0>        -0.4771
     25 O1          7.8655  -11.0640    7.3763 O.co2     1 <0>        -0.9000
     26 O2          3.8264   -1.4096    2.6322 O.2       1 <0>        -0.5700
     27 O3          2.8069   -7.3797    1.0639 O.2       1 <0>        -0.5700
     28 O4          9.3699   -9.3831    7.4749 O.co2     1 <0>        -0.9000
     29 O5          2.1322   -5.2984    0.4707 O.3       1 <0>        -0.2267
     30 H1         -0.8988   -3.3047   -2.7448 H         1 <0>         0.1500
     31 H2         -0.8327   -0.8408   -2.4990 H         1 <0>         0.1500
     32 H3          0.4859   -4.7266   -1.3099 H         1 <0>         0.1500
     33 H4          8.6062   -7.2613    6.4491 H         1 <0>         0.1500
     34 H5          5.7350  -10.4697    6.2597 H         1 <0>         0.1500
     35 H6          7.0247   -5.7781    5.2786 H         1 <0>         0.1500
     36 H7          4.1543   -8.9852    5.0901 H         1 <0>         0.1500
     37 H8          0.6051    0.1995   -0.8310 H         1 <0>         0.1500
     38 H9          4.4551   -3.7932    3.1588 H         1 <0>         0.1500
     39 H10         6.5778   -6.7107    2.3468 H         1 <0>         0.0000
     40 H11         5.2814   -7.5640    1.4730 H         1 <0>         0.0000
     41 H12         5.8366   -8.1641    3.0522 H         1 <0>         0.0000
     42 H13         1.5587    0.6833    1.7925 H         1 <0>         0.0000
     43 H14         2.1068    0.8343    0.1083 H         1 <0>         0.0000
     44 H15         3.2965    0.6776    1.4188 H         1 <0>         0.0000
@<TRIPOS>BOND
     1    1    2 ar
     2    1    3 ar
     3    2    8 ar
     4    3    9 ar
     5    4    6 ar
     6    4   10 ar
     7    5    7 ar
     8    5   10 ar
     9    6   11 ar
    10    7   11 ar
    11    8   12 ar
    12    9   12 ar
    13    9   14 1
    14   10   19 1
    15   11   23 1
    16   12   24 1
    17   13   15 1
    18   13   16 2
    19   14   15 2
    20   14   29 1
    21   15   17 1
    22   16   18 1
    23   16   20 1
    24   17   24 am
    25   17   26 2
    26   18   27 2
    27   18   29 1
    28   19   25 1
    29   19   28 2
    30   20   21 1
    31   20   23 2
    32   22   24 1
    33    1   30 1
    34    2   31 1
    35    3   32 1
    36    4   33 1
    37    5   34 1
    38    6   35 1
    39    7   36 1
    40    8   37 1
    41   13   38 1
    42   21   39 1
    43   21   40 1
    44   21   41 1
    45   22   42 1
    46   22   43 1
    47   22   44 1
@<TRIPOS>MOLECULE
ZINC59528245_32
   57    60     0     0     0
SMALL
USER_CHARGES

mmff94s_NoEstat = 94.46
@<TRIPOS>ATOM
      1 C1          2.2528   -1.1621    1.0267 C.2       1 <0>        -0.1500
      2 C2          0.4025   -0.9749   -0.5096 C.2       1 <0>        -0.1356
      3 C3          3.1937   -1.8646    1.6716 C.2       1 <0>        -0.2882
      4 C4          1.4222   -1.7111   -0.0360 C.2       1 <0>        -0.1382
      5 C5         -0.4857   -1.4794   -1.5831 C.2       1 <0>         0.4946
      6 C6          2.5979   -5.4599    0.3973 C.2       1 <0>         0.4480
      7 C7          5.2615   -7.3921    3.8175 C.2       1 <0>         0.4480
      8 C8          7.4522   -8.4568    6.5721 C.2       1 <0>         0.6590
      9 C9         -0.2582   -2.8671   -2.1248 C.3       1 <0>         0.0610
     10 C10         2.9935   -6.2792    1.6228 C.3       1 <0>         0.0610
     11 C11         0.4532   -3.7577   -1.1136 C.3       1 <0>         0.0000
     12 C12         4.9019   -3.6701    3.5819 C.3       1 <0>         0.0000
     13 C13         5.2668   -4.9236    4.4029 C.3       1 <0>         0.0000
     14 C14         3.4793   -3.3140    1.3861 C.3       1 <0>         0.1382
     15 C15         2.2668   -3.9792    0.6647 C.3       1 <0>         0.0610
     16 C16         3.7833   -4.1352    2.6508 C.3       1 <0>         0.0000
     17 C17         1.7530   -3.1265   -0.5439 C.3       1 <0>         0.1382
     18 C18         4.5041   -6.1004    3.7570 C.3       1 <0>         0.3410
     19 C19         4.1783   -5.6037    2.3266 C.3       1 <0>         0.0000
     20 C20         8.9496   -8.5156    6.5910 C.3       1 <0>         0.0610
     21 C21         2.8179   -3.0067   -1.6590 C.3       1 <0>         0.0000
     22 C22         5.4322   -5.7176    1.4133 C.3       1 <0>         0.0000
     23 C23         5.6103   -7.9007    5.2001 C.3       1 <0>         0.3410
     24 O1         -1.3623   -0.7477   -2.0406 O.2       1 <0>        -0.5700
     25 O2          2.5148   -5.9931   -0.7064 O.2       1 <0>        -0.5700
     26 O3          5.5765   -7.9968    2.7936 O.2       1 <0>        -0.5700
     27 O4          6.7422   -8.7719    7.5174 O.2       1 <0>        -0.5700
     28 O5          3.3103   -6.3548    4.4919 O.3       1 <0>        -0.6800
     29 O6          7.0099   -8.0044    5.3549 O.3       1 <0>        -0.4300
     30 H1          2.1017   -0.1222    1.3055 H         1 <0>         0.1500
     31 H2          0.1851    0.0207   -0.1345 H         1 <0>         0.1500
     32 H3          3.7942   -1.3558    2.4204 H         1 <0>         0.1500
     33 H4         -1.2334   -3.3078   -2.3609 H         1 <0>         0.0000
     34 H5          0.3104   -2.7869   -3.0565 H         1 <0>         0.0000
     35 H6          2.1092   -6.3471    2.2660 H         1 <0>         0.0000
     36 H7          3.2499   -7.2971    1.3090 H         1 <0>         0.0000
     37 H8         -0.2418   -3.9675   -0.2883 H         1 <0>         0.0000
     38 H9          0.6569   -4.7186   -1.5970 H         1 <0>         0.0000
     39 H10         4.5763   -2.8547    4.2362 H         1 <0>         0.0000
     40 H11         5.7725   -3.3136    3.0203 H         1 <0>         0.0000
     41 H12         6.3527   -5.0705    4.3755 H         1 <0>         0.0000
     42 H13         4.9789   -4.7802    5.4506 H         1 <0>         0.0000
     43 H14         4.3637   -3.3315    0.7400 H         1 <0>         0.0000
     44 H15         1.4311   -4.0249    1.3839 H         1 <0>         0.0000
     45 H16         2.8624   -4.1405    3.2572 H         1 <0>         0.0000
     46 H17         9.2866   -9.4969    6.2481 H         1 <0>         0.0000
     47 H18         9.3161   -8.3132    7.6005 H         1 <0>         0.0000
     48 H19         9.3510   -7.7538    5.9163 H         1 <0>         0.0000
     49 H20         3.0569   -3.9978   -2.0224 H         1 <0>         0.0000
     50 H21         3.7030   -2.5381   -1.2484 H         1 <0>         0.0000
     51 H22         2.4165   -2.4029   -2.4626 H         1 <0>         0.0000
     52 H23         6.2623   -5.2412    1.9128 H         1 <0>         0.0000
     53 H24         5.2189   -5.2223    0.4780 H         1 <0>         0.0000
     54 H25         5.6400   -6.7640    1.2484 H         1 <0>         0.0000
     55 H26         5.1581   -8.8838    5.3576 H         1 <0>         0.0000
     56 H27         5.2312   -7.1962    5.9451 H         1 <0>         0.0000
     57 H28         3.5845   -6.5943    5.3908 H         1 <0>         0.4000
@<TRIPOS>BOND
     1    1    3 2
     2    1    4 1
     3    2    4 2
     4    2    5 1
     5    3   14 1
     6    4   17 1
     7    5    9 1
     8    5   24 2
     9    6   10 1
    10    6   15 1
    11    6   25 2
    12    7   18 1
    13    7   23 1
    14    7   26 2
    15    8   20 1
    16    8   27 2
    17    8   29 1
    18    9   11 1
    19   10   19 1
    20   11   17 1
    21   12   13 1
    22   12   16 1
    23   13   18 1
    24   14   15 1
    25   14   16 1
    26   15   17 1
    27   16   19 1
    28   17   21 1
    29   18   19 1
    30   18   28 1
    31   19   22 1
    32   23   29 1
    33    1   30 1
    34    2   31 1
    35    3   32 1
    36    9   33 1
    37    9   34 1
    38   10   35 1
    39   10   36 1
    40   11   37 1
    41   11   38 1
    42   12   39 1
    43   12   40 1
    44   13   41 1
    45   13   42 1
    46   14   43 1
    47   15   44 1
    48   16   45 1
    49   20   46 1
    50   20   47 1
    51   20   48 1
    52   21   49 1
    53   21   50 1
    54   21   51 1
    55   22   52 1
    56   22   53 1
    57   22   54 1
    58   23   55 1
    59   23   56 1
    60   28   57 1
@<TRIPOS>MOLECULE
ZINC09033652_102
   66    69     0     0     0
SMALL
USER_CHARGES

mmff94s_NoEstat = 85.33
@<TRIPOS>ATOM
      1 C1          0.3872   -0.8688   -0.4965 C.2       1 <0>        -0.1356
      2 C2          1.4662   -1.5573   -0.0877 C.2       1 <0>        -0.2764
      3 C3         -0.4094   -1.3057   -1.6658 C.2       1 <0>         0.4946
      4 C4          6.4066   -9.3960    5.2984 C.2       1 <0>         0.5690
      5 C5          9.9092   -8.3474    5.9203 C.2       1 <0>         0.9060
      6 C6          4.6116   -8.7329    2.9515 C.2       1 <0>         0.6590
      7 C7          2.3175   -1.0028    1.0302 C.3       1 <0>         0.1382
      8 C8          0.0994   -2.4665   -2.4783 C.3       1 <0>         0.0610
      9 C9          2.5786   -2.0361    2.1184 C.3       1 <0>         0.0000
     10 C10         0.7795   -3.4855   -1.5778 C.3       1 <0>         0.0000
     11 C11         4.2966   -4.0141    3.8276 C.3       1 <0>         0.0000
     12 C12         2.7771   -5.2851   -0.0748 C.3       1 <0>         0.0000
     13 C13         4.7075   -5.3812    4.4042 C.3       1 <0>         0.0000
     14 C14         3.1280   -6.2741    1.0515 C.3       1 <0>         0.0000
     15 C15         3.1997   -3.3111    1.5344 C.3       1 <0>         0.0000
     16 C16         2.2613   -3.9126    0.4410 C.3       1 <0>         0.0000
     17 C17         3.4326   -4.3669    2.6195 C.3       1 <0>         0.0000
     18 C18         4.2360   -6.4375    3.3858 C.3       1 <0>         0.2800
     19 C19         1.9216   -2.8851   -0.7068 C.3       1 <0>         0.1382
     20 C20         4.0884   -5.6485    2.0707 C.3       1 <0>         0.0000
     21 C21         3.1435   -2.6018   -1.6098 C.3       1 <0>         0.0000
     22 C22         5.4751   -5.4346    1.4121 C.3       1 <0>         0.0000
     23 C23         6.0159  -10.4051    4.2298 C.3       1 <0>         0.0610
     24 C24         8.4248   -8.2730    6.2360 C.3       1 <0>         0.1941
     25 C25         5.7148   -9.7663    2.8769 C.3       1 <0>         0.0610
     26 N1          7.7776   -9.1843    5.3198 N.am      1 <0>        -0.7301
     27 O1         10.2239   -8.0265    4.7394 O.co2     1 <0>        -0.9000
     28 O2         -1.4165   -0.6794   -1.9891 O.2       1 <0>        -0.5700
     29 O3          5.5931   -8.8484    6.0373 O.2       1 <0>        -0.5700
     30 O4         10.6454   -8.7095    6.8812 O.co2     1 <0>        -0.9000
     31 O5          3.4260   -8.9475    2.7397 O.2       1 <0>        -0.5700
     32 O6          5.1486   -7.5135    3.2854 O.3       1 <0>        -0.4300
     33 H1          0.0888    0.0616   -0.0250 H         1 <0>         0.1500
     34 H2          3.2725   -0.6599    0.6133 H         1 <0>         0.0000
     35 H3          1.8496   -0.1226    1.4882 H         1 <0>         0.0000
     36 H4         -0.7526   -2.9411   -2.9778 H         1 <0>         0.0000
     37 H5          0.7774   -2.0868   -3.2490 H         1 <0>         0.0000
     38 H6          3.2493   -1.5972    2.8661 H         1 <0>         0.0000
     39 H7          1.6397   -2.2748    2.6345 H         1 <0>         0.0000
     40 H8          0.0129   -3.9239   -0.9234 H         1 <0>         0.0000
     41 H9          1.1576   -4.3030   -2.2031 H         1 <0>         0.0000
     42 H10         3.7477   -3.4205    4.5656 H         1 <0>         0.0000
     43 H11         5.1832   -3.4413    3.5340 H         1 <0>         0.0000
     44 H12         3.6562   -5.1451   -0.7114 H         1 <0>         0.0000
     45 H13         2.0148   -5.7581   -0.7037 H         1 <0>         0.0000
     46 H14         5.7895   -5.4235    4.5720 H         1 <0>         0.0000
     47 H15         4.2279   -5.5551    5.3740 H         1 <0>         0.0000
     48 H16         2.1980   -6.5792    1.5486 H         1 <0>         0.0000
     49 H17         3.5603   -7.1853    0.6208 H         1 <0>         0.0000
     50 H18         4.1614   -3.0370    1.0870 H         1 <0>         0.0000
     51 H19         1.3094   -4.1316    0.9522 H         1 <0>         0.0000
     52 H20         2.4404   -4.6300    3.0237 H         1 <0>         0.0000
     53 H21         3.2673   -6.8447    3.7022 H         1 <0>         0.0000
     54 H22         3.4751   -3.5321   -2.0534 H         1 <0>         0.0000
     55 H23         3.9349   -2.1764   -1.0057 H         1 <0>         0.0000
     56 H24         2.8527   -1.9042   -2.3850 H         1 <0>         0.0000
     57 H25         6.1407   -4.9936    2.1412 H         1 <0>         0.0000
     58 H26         5.3578   -4.7734    0.5646 H         1 <0>         0.0000
     59 H27         5.8566   -6.3934    1.0887 H         1 <0>         0.0000
     60 H28         5.1125  -10.9159    4.5858 H         1 <0>         0.0000
     61 H29         6.8105  -11.1555    4.1439 H         1 <0>         0.0000
     62 H30         8.0447   -7.2566    6.0940 H         1 <0>         0.0000
     63 H31         8.2308   -8.5709    7.2710 H         1 <0>         0.0000
     64 H32         5.4381  -10.5237    2.1357 H         1 <0>         0.0000
     65 H33         6.6180   -9.2494    2.5315 H         1 <0>         0.0000
     66 H34         8.3685   -9.6956    4.6708 H         1 <0>         0.3700
@<TRIPOS>BOND
     1    1    2 2
     2    1    3 1
     3    2    7 1
     4    2   19 1
     5    3    8 1
     6    3   28 2
     7    4   23 1
     8    4   26 am
     9    4   29 2
    10    5   24 1
    11    5   27 1
    12    5   30 2
    13    6   25 1
    14    6   31 2
    15    6   32 1
    16    7    9 1
    17    8   10 1
    18    9   15 1
    19   10   19 1
    20   11   13 1
    21   11   17 1
    22   12   14 1
    23   12   16 1
    24   13   18 1
    25   14   20 1
    26   15   16 1
    27   15   17 1
    28   16   19 1
    29   17   20 1
    30   18   20 1
    31   18   32 1
    32   19   21 1
    33   20   22 1
    34   23   25 1
    35   24   26 1
    36    1   33 1
    37    7   34 1
    38    7   35 1
    39    8   36 1
    40    8   37 1
    41    9   38 1
    42    9   39 1
    43   10   40 1
    44   10   41 1
    45   11   42 1
    46   11   43 1
    47   12   44 1
    48   12   45 1
    49   13   46 1
    50   13   47 1
    51   14   48 1
    52   14   49 1
    53   15   50 1
    54   16   51 1
    55   17   52 1
    56   18   53 1
    57   21   54 1
    58   21   55 1
    59   21   56 1
    60   22   57 1
    61   22   58 1
    62   22   59 1
    63   23   60 1
    64   23   61 1
    65   24   62 1
    66   24   63 1
    67   25   64 1
    68   25   65 1
    69   26   66 1
@<TRIPOS>MOLECULE
ZINC04097469_12
   60    63     0     0     0
SMALL
USER_CHARGES

mmff94s_NoEstat = 127.74
@<TRIPOS>ATOM
      1 C1         -0.0544   -3.2209   -1.9013 C.2       1 <0>        -0.1356
      2 C2          0.2735   -1.2836   -0.3124 C.2       1 <0>        -0.1356
      3 C3          1.1763   -3.6512   -1.6068 C.2       1 <0>        -0.2882
      4 C4          1.5080   -1.7219   -0.0195 C.2       1 <0>        -0.2764
      5 C5         -0.5861   -1.9936   -1.2814 C.2       1 <0>         0.5412
      6 C6          5.5365   -7.3435    3.7407 C.2       1 <0>         0.4480
      7 C7          2.3394   -1.0102    1.0169 C.3       1 <0>         0.1382
      8 C8          2.7166   -1.9659    2.1423 C.3       1 <0>         0.0000
      9 C9          4.4604   -3.7518    3.9803 C.3       1 <0>         0.0000
     10 C10         3.5068   -6.2229    1.3023 C.3       1 <0>         0.0000
     11 C11         3.4021   -3.2421    1.6200 C.3       1 <0>         0.0000
     12 C12         3.6533   -4.2240    2.7749 C.3       1 <0>         0.0000
     13 C13         4.7620   -5.0626    4.7514 C.3       1 <0>         0.0000
     14 C14         3.1200   -5.3261    0.1037 C.3       1 <0>         0.2800
     15 C15         2.1420   -2.9680   -0.6490 C.3       1 <0>         0.2764
     16 C16         4.5460   -6.2162    3.7207 C.3       1 <0>         0.3410
     17 C17         4.3971   -5.5057    2.3394 C.3       1 <0>         0.0000
     18 C18         2.5272   -3.9487    0.5280 C.3       1 <0>         0.3400
     19 C19         6.1290   -4.9913    5.4245 C.3       1 <0>         0.0000
     20 C20         3.3438   -2.5095   -1.5067 C.3       1 <0>         0.0000
     21 C21         5.8029   -5.2254    1.7397 C.3       1 <0>         0.0000
     22 C22         5.6459   -8.1170    5.0374 C.3       1 <0>         0.3410
     23 O1          8.7784   -9.8503    6.4048 O.3       1 <0>        -1.0333
     24 O2          6.3657  -10.6975    6.4993 O.3       1 <0>        -1.0333
     25 O3         -1.7071   -1.5793   -1.5564 O.2       1 <0>        -0.5700
     26 O4          6.2159   -7.6148    2.7517 O.2       1 <0>        -0.5700
     27 O5          7.0206   -8.5443    7.7284 O.2       1 <0>        -1.0333
     28 O6          4.2346   -5.1726   -0.7611 O.3       1 <0>        -0.6800
     29 O7          3.3256   -6.8887    4.0575 O.3       1 <0>        -0.6800
     30 O8          6.9554   -8.6151    5.2120 O.3       1 <0>        -0.5512
     31 F1          1.3314   -4.2653    1.1543 F         1 <0>        -0.3400
     32 P1          7.3035   -9.4960    6.5698 P.3       1 <0>         1.3712
     33 H1         -0.6841   -3.7522   -2.6054 H         1 <0>         0.1500
     34 H2         -0.1476   -0.4028    0.1607 H         1 <0>         0.1500
     35 H3          1.5225   -4.5488   -2.1147 H         1 <0>         0.1500
     36 H4          3.2427   -0.5997    0.5514 H         1 <0>         0.0000
     37 H5          1.8010   -0.1550    1.4441 H         1 <0>         0.0000
     38 H6          3.3821   -1.4404    2.8373 H         1 <0>         0.0000
     39 H7          1.8154   -2.2320    2.7101 H         1 <0>         0.0000
     40 H8          5.3766   -3.2375    3.6689 H         1 <0>         0.0000
     41 H9          3.8907   -3.0575    4.6073 H         1 <0>         0.0000
     42 H10         2.5733   -6.5546    1.7733 H         1 <0>         0.0000
     43 H11         4.0169   -7.1260    0.9446 H         1 <0>         0.0000
     44 H12         4.3591   -2.9392    1.1835 H         1 <0>         0.0000
     45 H13         2.6620   -4.5083    3.1644 H         1 <0>         0.0000
     46 H14         4.0120   -5.1487    5.5499 H         1 <0>         0.0000
     47 H15         2.3575   -5.8780   -0.4580 H         1 <0>         0.0000
     48 H16         6.9101   -4.9048    4.6699 H         1 <0>         0.0000
     49 H17         6.3009   -5.8927    6.0116 H         1 <0>         0.0000
     50 H18         6.1736   -4.1245    6.0828 H         1 <0>         0.0000
     51 H19         4.0629   -2.0147   -0.8662 H         1 <0>         0.0000
     52 H20         2.9906   -1.8243   -2.2667 H         1 <0>         0.0000
     53 H21         3.7951   -3.3776   -1.9700 H         1 <0>         0.0000
     54 H22         6.4005   -4.7245    2.4870 H         1 <0>         0.0000
     55 H23         5.6847   -4.5977    0.8687 H         1 <0>         0.0000
     56 H24         6.2531   -6.1685    1.4668 H         1 <0>         0.0000
     57 H25         4.9419   -8.9537    5.0295 H         1 <0>         0.0000
     58 H26         5.4157   -7.4488    5.8714 H         1 <0>         0.0000
     59 H27         4.4806   -6.0619   -1.0651 H         1 <0>         0.4000
     60 H28         3.4677   -7.2803    4.9306 H         1 <0>         0.4000
@<TRIPOS>BOND
     1    1    3 2
     2    1    5 1
     3    2    4 2
     4    2    5 1
     5    3   15 1
     6    4    7 1
     7    4   15 1
     8    5   25 2
     9    6   16 1
    10    6   22 1
    11    6   26 2
    12    7    8 1
    13    8   11 1
    14    9   12 1
    15    9   13 1
    16   10   14 1
    17   10   17 1
    18   11   12 1
    19   11   18 1
    20   12   17 1
    21   13   16 1
    22   13   19 1
    23   14   18 1
    24   14   28 1
    25   15   18 1
    26   15   20 1
    27   16   17 1
    28   16   29 1
    29   17   21 1
    30   18   31 1
    31   22   30 1
    32   23   32 1
    33   24   32 1
    34   27   32 2
    35   30   32 1
    36    1   33 1
    37    2   34 1
    38    3   35 1
    39    7   36 1
    40    7   37 1
    41    8   38 1
    42    8   39 1
    43    9   40 1
    44    9   41 1
    45   10   42 1
    46   10   43 1
    47   11   44 1
    48   12   45 1
    49   13   46 1
    50   14   47 1
    51   19   48 1
    52   19   49 1
    53   19   50 1
    54   20   51 1
    55   20   52 1
    56   20   53 1
    57   21   54 1
    58   21   55 1
    59   21   56 1
    60   22   57 1
    61   22   58 1
    62   28   59 1
    63   29   60 1
@<TRIPOS>MOLECULE
ZINC02352230_26
   47    50     0     0     0
SMALL
USER_CHARGES

mmff94s_NoEstat = 107.54
@<TRIPOS>ATOM
      1 C1          3.9468   -9.0134    6.1879 C.ar      1 <0>        -0.1500
      2 C2          5.9917   -8.1261    5.2562 C.ar      1 <0>        -0.1500
      3 C3          1.4324   -1.2998   -0.0463 C.ar      1 <0>        -0.1500
      4 C4          0.7963   -3.3843   -1.0890 C.ar      1 <0>        -0.1500
      5 C5          4.6107   -9.2884    7.3833 C.ar      1 <0>        -0.1500
      6 C6          6.6557   -8.4012    6.4516 C.ar      1 <0>        -0.1500
      7 C7          0.4322   -0.6382   -0.7586 C.ar      1 <0>        -0.1500
      8 C8         -0.2040   -2.7228   -1.8013 C.ar      1 <0>        -0.1500
      9 C9          4.6373   -8.4322    5.1242 C.ar      1 <0>         0.0284
     10 C10         1.6146   -2.6728   -0.2115 C.ar      1 <0>         0.1000
     11 C11         5.9652   -8.9824    7.5152 C.ar      1 <0>         0.1330
     12 C12        -0.3861   -1.3496   -1.6360 C.ar      1 <0>         0.0825
     13 C13         3.8569   -6.9422    3.3393 C.2       1 <0>         0.1154
     14 C14         3.1434   -6.6833    2.0633 C.2       1 <0>         0.6156
     15 C15         3.9033   -4.5349    2.6559 C.2       1 <0>         0.6510
     16 C16         3.9542   -8.1510    3.8943 C.2       1 <0>        -0.1784
     17 C17         3.4827   -2.5942    1.4287 C.3       1 <0>         0.6151
     18 C18         2.6353   -4.7941    0.5486 C.3       1 <0>         0.6692
     19 C19        -2.1955   -0.1062   -4.4939 C.3       1 <0>         0.0000
     20 C20        -1.7093   -1.2339   -3.6087 C.3       1 <0>         0.2800
     21 N1          4.0948   -3.2707    2.5823 N.2       1 <0>        -0.6960
     22 N2          2.6193   -3.3376    0.5041 N.pl3     1 <0>        -0.8382
     23 N3          3.2126   -5.3238    1.7734 N.am      1 <0>        -0.4201
     24 N4          6.6418   -9.2624    8.7320 N.pl3     1 <0>         0.9070
     25 O1          6.0026   -9.7856    9.6765 O.3       1 <0>        -0.5200
     26 O2          2.6029   -7.5566    1.3982 O.2       1 <0>        -0.5700
     27 O3          7.8603   -8.9794    8.8290 O.2       1 <0>        -0.5200
     28 O4         -1.3633   -0.7046   -2.3297 O.3       1 <0>        -0.3625
     29 S1          4.5265   -5.4921    3.9760 S.3       1 <0>        -0.2420
     30 H1          2.8909   -9.2578    6.0998 H         1 <0>         0.1500
     31 H2          6.5432   -7.6738    4.4352 H         1 <0>         0.1500
     32 H3          2.0642   -0.7354    0.6348 H         1 <0>         0.1500
     33 H4          0.9292   -4.4548   -1.2244 H         1 <0>         0.1500
     34 H5          4.0609   -9.7413    8.2048 H         1 <0>         0.1500
     35 H6          7.7117   -8.1580    6.5419 H         1 <0>         0.1500
     36 H7          0.2947    0.4313   -0.6249 H         1 <0>         0.1500
     37 H8         -0.8380   -3.2819   -2.4839 H         1 <0>         0.1500
     38 H9          3.5051   -8.9896    3.3615 H         1 <0>         0.1500
     39 H10         2.9052   -1.7490    1.8233 H         1 <0>         0.0000
     40 H11         4.3085   -2.1588    0.8511 H         1 <0>         0.0000
     41 H12         1.6195   -5.1953    0.4469 H         1 <0>         0.0000
     42 H13         3.2302   -5.1946   -0.2822 H         1 <0>         0.0000
     43 H14        -3.0792    0.3739   -4.0643 H         1 <0>         0.0000
     44 H15        -1.4119    0.6474   -4.6243 H         1 <0>         0.0000
     45 H16        -2.4468   -0.4800   -5.4920 H         1 <0>         0.0000
     46 H17        -0.8255   -1.7097   -4.0440 H         1 <0>         0.0000
     47 H18        -2.4936   -1.9855   -3.4787 H         1 <0>         0.0000
@<TRIPOS>BOND
     1    1    5 ar
     2    1    9 ar
     3    2    6 ar
     4    2    9 ar
     5    3    7 ar
     6    3   10 ar
     7    4    8 ar
     8    4   10 ar
     9    5   11 ar
    10    6   11 ar
    11    7   12 ar
    12    8   12 ar
    13    9   16 1
    14   10   22 1
    15   11   24 1
    16   12   28 1
    17   13   14 1
    18   13   16 2
    19   13   29 1
    20   14   23 am
    21   14   26 2
    22   15   21 2
    23   15   23 1
    24   15   29 1
    25   17   21 1
    26   17   22 1
    27   18   22 1
    28   18   23 1
    29   19   20 1
    30   20   28 1
    31   24   25 1
    32   24   27 2
    33    1   30 1
    34    2   31 1
    35    3   32 1
    36    4   33 1
    37    5   34 1
    38    6   35 1
    39    7   36 1
    40    8   37 1
    41   16   38 1
    42   17   39 1
    43   17   40 1
    44   18   41 1
    45   18   42 1
    46   19   43 1
    47   19   44 1
    48   19   45 1
    49   20   46 1
    50   20   47 1
@<TRIPOS>MOLECULE
ZINC21991623_1
   53    56     0     0     0
SMALL
USER_CHARGES

mmff94s_NoEstat = 99.28
@<TRIPOS>ATOM
      1 C1         -0.0933   -2.7529   -2.0852 C.2       1 <0>        -0.1356
      2 C2          1.0027   -3.3797   -1.6356 C.2       1 <0>        -0.2882
      3 C3         -0.4241   -1.3787   -1.6230 C.2       1 <0>         0.6156
      4 C4          4.7832   -7.7781    3.3215 C.2       1 <0>         0.6590
      5 C5          5.0347   -5.4324    4.2345 C.3       1 <0>         0.0000
      6 C6          4.8296   -4.0575    3.5736 C.3       1 <0>         0.0000
      7 C7          2.6783   -2.0297    2.2050 C.3       1 <0>         0.0000
      8 C8          1.7308   -5.0127    0.8152 C.3       1 <0>         0.0000
      9 C9          1.9891   -1.0543    1.2618 C.3       1 <0>         0.0000
     10 C10         2.5680   -6.1769    1.4051 C.3       1 <0>         0.0000
     11 C11         4.1503   -6.4273    3.4526 C.3       1 <0>         0.0610
     12 C12         3.4000   -3.2229    1.5291 C.3       1 <0>         0.0000
     13 C13         2.6211   -3.8518    0.3163 C.3       1 <0>         0.0000
     14 C14         3.6613   -4.2857    2.6200 C.3       1 <0>         0.0000
     15 C15         1.1071   -1.8160    0.2799 C.3       1 <0>         0.3001
     16 C16         1.9328   -2.7817   -0.5948 C.3       1 <0>         0.1382
     17 C17         3.8704   -5.7187    2.1027 C.3       1 <0>         0.0000
     18 C18         3.0374   -2.0431   -1.4003 C.3       1 <0>         0.0000
     19 C19         5.0898   -5.8673    1.1563 C.3       1 <0>         0.0000
     20 C20         5.6307   -9.5869    4.5838 C.3       1 <0>         0.2800
     21 N1          0.2897   -0.9267   -0.5314 N.am      1 <0>        -0.7301
     22 O1         -1.2746   -0.7156   -2.2112 O.2       1 <0>        -0.5700
     23 O2          5.0344   -8.3161    2.2516 O.2       1 <0>        -0.5700
     24 O3          5.0240   -8.2910    4.5616 O.3       1 <0>        -0.4300
     25 H1         -0.7178   -3.1931   -2.8539 H         1 <0>         0.1500
     26 H2          1.2620   -4.3438   -2.0657 H         1 <0>         0.1500
     27 H3          6.0955   -5.7065    4.2233 H         1 <0>         0.0000
     28 H4          4.7234   -5.4029    5.2851 H         1 <0>         0.0000
     29 H5          4.6097   -3.2849    4.3172 H         1 <0>         0.0000
     30 H6          5.7343   -3.7534    3.0357 H         1 <0>         0.0000
     31 H7          3.3919   -1.4812    2.8320 H         1 <0>         0.0000
     32 H8          1.9060   -2.4066    2.8890 H         1 <0>         0.0000
     33 H9          1.1117   -5.4264    0.0129 H         1 <0>         0.0000
     34 H10         1.0347   -4.6428    1.5782 H         1 <0>         0.0000
     35 H11         1.3779   -0.3602    1.8528 H         1 <0>         0.0000
     36 H12         2.7258   -0.4302    0.7448 H         1 <0>         0.0000
     37 H13         1.9257   -6.7303    2.1013 H         1 <0>         0.0000
     38 H14         2.8059   -6.8848    0.6012 H         1 <0>         0.0000
     39 H15         3.2118   -6.5704    4.0049 H         1 <0>         0.0000
     40 H16         4.3606   -2.8550    1.1461 H         1 <0>         0.0000
     41 H17         3.3573   -4.3325   -0.3391 H         1 <0>         0.0000
     42 H18         2.7629   -4.3163    3.2597 H         1 <0>         0.0000
     43 H19         0.3766   -2.3968    0.8621 H         1 <0>         0.0000
     44 H20         3.7300   -1.5968   -0.7020 H         1 <0>         0.0000
     45 H21         2.5684   -1.2811   -2.0053 H         1 <0>         0.0000
     46 H22         3.5441   -2.7629   -2.0261 H         1 <0>         0.0000
     47 H23         5.9761   -5.5377    1.6802 H         1 <0>         0.0000
     48 H24         4.9236   -5.2564    0.2800 H         1 <0>         0.0000
     49 H25         5.1850   -6.9070    0.8758 H         1 <0>         0.0000
     50 H26         5.7792   -9.9028    5.6193 H         1 <0>         0.0000
     51 H27         6.5901   -9.5501    4.0618 H         1 <0>         0.0000
     52 H28         4.9708  -10.2970    4.0798 H         1 <0>         0.0000
     53 H29         0.2428    0.0578   -0.2866 H         1 <0>         0.3700
@<TRIPOS>BOND
     1    1    2 2
     2    1    3 1
     3    2   16 1
     4    3   21 am
     5    3   22 2
     6    4   11 1
     7    4   23 2
     8    4   24 1
     9    5    6 1
    10    5   11 1
    11    6   14 1
    12    7    9 1
    13    7   12 1
    14    8   10 1
    15    8   13 1
    16    9   15 1
    17   10   17 1
    18   11   17 1
    19   12   13 1
    20   12   14 1
    21   13   16 1
    22   14   17 1
    23   15   16 1
    24   15   21 1
    25   16   18 1
    26   17   19 1
    27   20   24 1
    28    1   25 1
    29    2   26 1
    30    5   27 1
    31    5   28 1
    32    6   29 1
    33    6   30 1
    34    7   31 1
    35    7   32 1
    36    8   33 1
    37    8   34 1
    38    9   35 1
    39    9   36 1
    40   10   37 1
    41   10   38 1
    42   11   39 1
    43   12   40 1
    44   13   41 1
    45   14   42 1
    46   15   43 1
    47   18   44 1
    48   18   45 1
    49   18   46 1
    50   19   47 1
    51   19   48 1
    52   19   49 1
    53   20   50 1
    54   20   51 1
    55   20   52 1
    56   21   53 1
@<TRIPOS>MOLECULE
ZINC35044325_189
   77    80     0     0     0
SMALL
USER_CHARGES

mmff94s_NoEstat = 127.97
@<TRIPOS>ATOM
      1 C1          7.1959   -9.3383    2.1196 C.2       1 <0>         0.5690
      2 C2          2.8192   -1.2902    0.8262 C.3       1 <0>         0.0000
      3 C3          3.1374   -2.2820    1.9688 C.3       1 <0>         0.0000
      4 C4          3.3049   -4.4217    4.1776 C.3       1 <0>         0.0000
      5 C5          2.0837   -5.5690    0.2181 C.3       1 <0>         0.0000
      6 C6          3.8750   -5.7637    4.6739 C.3       1 <0>         0.0000
      7 C7         -0.4929   -2.4881   -1.8556 C.3       1 <0>         0.0000
      8 C8          3.0606   -6.4843    0.9959 C.3       1 <0>         0.0000
      9 C9          0.2326   -3.5221   -0.9790 C.3       1 <0>         0.0000
     10 C10         0.9632   -0.6290   -0.8450 C.3       1 <0>         0.0000
     11 C11         1.5331   -1.6904    0.0953 C.3       1 <0>         0.0000
     12 C12         2.3770   -3.6139    1.8263 C.3       1 <0>         0.0000
     13 C13         2.7537   -4.7445    2.7930 C.3       1 <0>         0.0000
     14 C14         2.4314   -4.0780    0.3490 C.3       1 <0>         0.0000
     15 C15         3.7785   -6.7450    3.4822 C.3       1 <0>         0.0000
     16 C16        -0.4365   -1.0579   -1.3077 C.3       1 <0>         0.2800
     17 C17         1.6709   -3.0838   -0.6067 C.3       1 <0>         0.0000
     18 C18         3.7079   -5.8189    2.2348 C.3       1 <0>         0.0000
     19 C19         2.5161   -3.0081   -1.9111 C.3       1 <0>         0.0000
     20 C20         5.1190   -5.2880    1.8817 C.3       1 <0>         0.0000
     21 C21         4.8359   -8.5909    4.8000 C.3       1 <0>         0.0000
     22 C22         5.7678   -9.8484    2.2171 C.3       1 <0>         0.0610
     23 C23         4.7448   -8.7126    2.2550 C.3       1 <0>         0.0000
     24 C24         9.0975   -8.6518    3.5743 C.3       1 <0>         0.3001
     25 C25         9.2341   -7.8591    4.8600 C.3       1 <0>         0.1052
     26 C26         4.8777   -7.7980    3.4897 C.3       1 <0>         0.0000
     27 N1          7.7523   -9.1401    3.3750 N.am      1 <0>        -0.7301
     28 O1         11.1520   -6.4643    3.9611 O.3       1 <0>        -0.8167
     29 O2          7.7639   -9.1284    1.0513 O.2       1 <0>        -0.5700
     30 O3         10.7893   -6.5749    6.3976 O.2       1 <0>        -0.8167
     31 O4         11.6540   -8.5428    5.1893 O.2       1 <0>        -0.8167
     32 O5         -0.9025   -0.1655   -2.3147 O.3       1 <0>        -0.6800
     33 S1         10.8867   -7.2996    5.1313 S.o2      1 <0>         1.3448
     34 H1          2.7256   -0.2822    1.2476 H         1 <0>         0.0000
     35 H2          3.6612   -1.2521    0.1260 H         1 <0>         0.0000
     36 H3          4.2203   -2.4456    2.0019 H         1 <0>         0.0000
     37 H4          2.8643   -1.8188    2.9250 H         1 <0>         0.0000
     38 H5          2.5257   -4.0442    4.8475 H         1 <0>         0.0000
     39 H6          4.1031   -3.6733    4.1416 H         1 <0>         0.0000
     40 H7          2.0835   -5.8782   -0.8333 H         1 <0>         0.0000
     41 H8          1.0679   -5.7401    0.5960 H         1 <0>         0.0000
     42 H9          4.9089   -5.6270    5.0110 H         1 <0>         0.0000
     43 H10         3.3017   -6.1420    5.5275 H         1 <0>         0.0000
     44 H11        -0.0896   -2.5081   -2.8755 H         1 <0>         0.0000
     45 H12        -1.5428   -2.7867   -1.9702 H         1 <0>         0.0000
     46 H13         2.5110   -7.3892    1.2845 H         1 <0>         0.0000
     47 H14         3.8433   -6.8296    0.3085 H         1 <0>         0.0000
     48 H15        -0.3517   -3.6807   -0.0634 H         1 <0>         0.0000
     49 H16         0.2423   -4.4790   -1.5137 H         1 <0>         0.0000
     50 H17         0.8811    0.3348   -0.3260 H         1 <0>         0.0000
     51 H18         1.6209   -0.4362   -1.6995 H         1 <0>         0.0000
     52 H19         0.7694   -1.7787    0.8834 H         1 <0>         0.0000
     53 H20         1.3270   -3.3998    2.0733 H         1 <0>         0.0000
     54 H21         1.7948   -5.2596    2.9850 H         1 <0>         0.0000
     55 H22         3.4830   -4.0086    0.0482 H         1 <0>         0.0000
     56 H23         2.8218   -7.2800    3.5758 H         1 <0>         0.0000
     57 H24        -1.1284   -0.9824   -0.4596 H         1 <0>         0.0000
     58 H25         3.5179   -2.7026   -1.6503 H         1 <0>         0.0000
     59 H26         2.0597   -2.2861   -2.5708 H         1 <0>         0.0000
     60 H27         2.5252   -3.9860   -2.3678 H         1 <0>         0.0000
     61 H28         5.5485   -4.8290    2.7621 H         1 <0>         0.0000
     62 H29         5.0278   -4.5590    1.0877 H         1 <0>         0.0000
     63 H30         5.7320   -6.1183    1.5572 H         1 <0>         0.0000
     64 H31         3.8911   -9.1304    4.9156 H         1 <0>         0.0000
     65 H32         4.9313   -7.9187    5.6598 H         1 <0>         0.0000
     66 H33         5.6533   -9.3180    4.8477 H         1 <0>         0.0000
     67 H34         5.5760  -10.4950    1.3527 H         1 <0>         0.0000
     68 H35         5.6966  -10.4599    3.1231 H         1 <0>         0.0000
     69 H36         4.8298   -8.1139    1.3386 H         1 <0>         0.0000
     70 H37         3.7355   -9.1450    2.2459 H         1 <0>         0.0000
     71 H38         9.3629   -8.0487    2.7003 H         1 <0>         0.0000
     72 H39         9.7530   -9.5277    3.6007 H         1 <0>         0.0000
     73 H40         8.9773   -8.4832    5.7212 H         1 <0>         0.0000
     74 H41         8.5917   -6.9734    4.8616 H         1 <0>         0.0000
     75 H42         5.8479   -7.2826    3.4370 H         1 <0>         0.0000
     76 H43         7.1902   -9.3214    4.2015 H         1 <0>         0.3700
     77 H44        -1.8138   -0.4284   -2.5183 H         1 <0>         0.4000
@<TRIPOS>BOND
     1    1   22 1
     2    1   27 am
     3    1   29 2
     4    2    3 1
     5    2   11 1
     6    3   12 1
     7    4    6 1
     8    4   13 1
     9    5    8 1
    10    5   14 1
    11    6   15 1
    12    7    9 1
    13    7   16 1
    14    8   18 1
    15    9   17 1
    16   10   11 1
    17   10   16 1
    18   11   17 1
    19   12   13 1
    20   12   14 1
    21   13   18 1
    22   14   17 1
    23   15   18 1
    24   15   26 1
    25   16   32 1
    26   17   19 1
    27   18   20 1
    28   21   26 1
    29   22   23 1
    30   23   26 1
    31   24   25 1
    32   24   27 1
    33   25   33 1
    34   28   33 1
    35   30   33 2
    36   31   33 2
    37    2   34 1
    38    2   35 1
    39    3   36 1
    40    3   37 1
    41    4   38 1
    42    4   39 1
    43    5   40 1
    44    5   41 1
    45    6   42 1
    46    6   43 1
    47    7   44 1
    48    7   45 1
    49    8   46 1
    50    8   47 1
    51    9   48 1
    52    9   49 1
    53   10   50 1
    54   10   51 1
    55   11   52 1
    56   12   53 1
    57   13   54 1
    58   14   55 1
    59   15   56 1
    60   16   57 1
    61   19   58 1
    62   19   59 1
    63   19   60 1
    64   20   61 1
    65   20   62 1
    66   20   63 1
    67   21   64 1
    68   21   65 1
    69   21   66 1
    70   22   67 1
    71   22   68 1
    72   23   69 1
    73   23   70 1
    74   24   71 1
    75   24   72 1
    76   25   73 1
    77   25   74 1
    78   26   75 1
    79   27   76 1
    80   32   77 1
@<TRIPOS>MOLECULE
ZINC39577812_34
   70    73     0     0     0
SMALL
USER_CHARGES

mmff94s_NoEstat = 105.92
@<TRIPOS>ATOM
      1 C1          2.2860   -5.3546    0.4217 C.2       1 <0>        -0.1356
      2 C2          3.1759   -2.0403    1.7922 C.2       1 <0>        -0.2882
      3 C3          2.3448   -4.0089    0.5361 C.2       1 <0>        -0.1382
      4 C4          3.0123   -3.3714    1.6961 C.2       1 <0>        -0.1382
      5 C5          3.0085   -6.2624    1.3678 C.2       1 <0>         0.4946
      6 C6         -2.2302   -0.4127   -2.8547 C.2       1 <0>         0.6590
      7 C7          7.7423   -9.0919    6.1530 C.2       1 <0>         0.6590
      8 C8          2.6021   -1.0637    0.8129 C.3       1 <0>         0.1382
      9 C9          4.3770   -3.9047    3.9088 C.3       1 <0>         0.0000
     10 C10         4.8495   -5.2321    4.5212 C.3       1 <0>         0.0000
     11 C11        -0.1340   -2.6484   -2.2408 C.3       1 <0>         0.0000
     12 C12         0.5079   -3.6257   -1.2532 C.3       1 <0>         0.0000
     13 C13         0.8145   -0.7020   -0.9385 C.3       1 <0>         0.0000
     14 C14         3.4258   -4.3264    2.7889 C.3       1 <0>         0.1382
     15 C15         1.4173   -1.6901    0.0674 C.3       1 <0>         0.0000
     16 C16         4.3642   -6.3501    3.5714 C.3       1 <0>         0.0000
     17 C17        -0.4225   -1.2911   -1.6117 C.3       1 <0>         0.2800
     18 C18         1.7897   -3.0684   -0.5648 C.3       1 <0>         0.1382
     19 C19         4.0722   -5.6155    2.2444 C.3       1 <0>         0.0610
     20 C20        -2.5668    0.5607   -3.9434 C.3       1 <0>         0.0610
     21 C21         2.9111   -2.9336   -1.6288 C.3       1 <0>         0.0000
     22 C22         5.3400   -5.3907    1.3966 C.3       1 <0>         0.0000
     23 C23         4.6505   -8.7493    2.9203 C.3       1 <0>         0.0000
     24 C24         7.2972   -8.8211    8.4612 C.3       1 <0>         0.2800
     25 C25         7.2173   -8.7129    4.7861 C.3       1 <0>         0.0610
     26 C26         5.9502   -7.8606    4.8780 C.3       1 <0>         0.0000
     27 C27         5.3453   -7.5140    3.5030 C.3       1 <0>         0.0000
     28 O1          2.7848   -7.4692    1.3558 O.2       1 <0>        -0.5700
     29 O2         -3.0570   -1.0997   -2.2701 O.2       1 <0>        -0.5700
     30 O3          8.7254   -9.7887    6.3633 O.2       1 <0>        -0.5700
     31 O4         -0.8824   -0.4067   -2.6280 O.3       1 <0>        -0.4300
     32 O5          6.9336   -8.5397    7.1058 O.3       1 <0>        -0.4300
     33 H1          1.7981   -5.8518   -0.4081 H         1 <0>         0.1500
     34 H2          3.6805   -1.6093    2.6521 H         1 <0>         0.1500
     35 H3          2.2496   -0.1834    1.3644 H         1 <0>         0.0000
     36 H4          3.3847   -0.7179    0.1289 H         1 <0>         0.0000
     37 H5          3.8804   -3.2756    4.6552 H         1 <0>         0.0000
     38 H6          5.2360   -3.3442    3.5219 H         1 <0>         0.0000
     39 H7          5.9399   -5.2238    4.6291 H         1 <0>         0.0000
     40 H8          4.4243   -5.3748    5.5209 H         1 <0>         0.0000
     41 H9          0.5037   -2.5228   -3.1245 H         1 <0>         0.0000
     42 H10        -1.0681   -3.0777   -2.6247 H         1 <0>         0.0000
     43 H11        -0.2345   -3.8857   -0.4864 H         1 <0>         0.0000
     44 H12         0.7276   -4.5498   -1.8012 H         1 <0>         0.0000
     45 H13         0.5314    0.2289   -0.4298 H         1 <0>         0.0000
     46 H14         1.5516   -0.4010   -1.6928 H         1 <0>         0.0000
     47 H15         2.4791   -4.5999    3.2889 H         1 <0>         0.0000
     48 H16         0.6326   -1.8774    0.8193 H         1 <0>         0.0000
     49 H17         3.4195   -6.7485    3.9701 H         1 <0>         0.0000
     50 H18        -1.2270   -1.3953   -0.8737 H         1 <0>         0.0000
     51 H19        -2.7710    1.5437   -3.5118 H         1 <0>         0.0000
     52 H20        -3.4302    0.2010   -4.5087 H         1 <0>         0.0000
     53 H21        -1.7168    0.6495   -4.6262 H         1 <0>         0.0000
     54 H22         2.5615   -2.2823   -2.4174 H         1 <0>         0.0000
     55 H23         3.1319   -3.9153   -2.0230 H         1 <0>         0.0000
     56 H24         3.7869   -2.5132   -1.1552 H         1 <0>         0.0000
     57 H25         6.1025   -4.9301    2.0143 H         1 <0>         0.0000
     58 H26         5.0988   -4.7402    0.5637 H         1 <0>         0.0000
     59 H27         5.6935   -6.3463    1.0269 H         1 <0>         0.0000
     60 H28         3.8210   -9.0713    3.5588 H         1 <0>         0.0000
     61 H29         4.2502   -8.5444    1.9215 H         1 <0>         0.0000
     62 H30         5.3518   -9.5866    2.8395 H         1 <0>         0.0000
     63 H31         6.5898   -8.3350    9.1374 H         1 <0>         0.0000
     64 H32         8.3095   -8.4553    8.6512 H         1 <0>         0.0000
     65 H33         7.2665   -9.9015    8.6205 H         1 <0>         0.0000
     66 H34         8.0103   -8.1637    4.2684 H         1 <0>         0.0000
     67 H35         6.9988   -9.6354    4.2368 H         1 <0>         0.0000
     68 H36         6.1705   -6.9376    5.4305 H         1 <0>         0.0000
     69 H37         5.2017   -8.4012    5.4724 H         1 <0>         0.0000
     70 H38         6.1635   -7.2409    2.8216 H         1 <0>         0.0000
@<TRIPOS>BOND
     1    1    3 2
     2    1    5 1
     3    2    4 2
     4    2    8 1
     5    3    4 1
     6    3   18 1
     7    4   14 1
     8    5   19 1
     9    5   28 2
    10    6   20 1
    11    6   29 2
    12    6   31 1
    13    7   25 1
    14    7   30 2
    15    7   32 1
    16    8   15 1
    17    9   10 1
    18    9   14 1
    19   10   16 1
    20   11   12 1
    21   11   17 1
    22   12   18 1
    23   13   15 1
    24   13   17 1
    25   14   19 1
    26   15   18 1
    27   16   19 1
    28   16   27 1
    29   17   31 1
    30   18   21 1
    31   19   22 1
    32   23   27 1
    33   24   32 1
    34   25   26 1
    35   26   27 1
    36    1   33 1
    37    2   34 1
    38    8   35 1
    39    8   36 1
    40    9   37 1
    41    9   38 1
    42   10   39 1
    43   10   40 1
    44   11   41 1
    45   11   42 1
    46   12   43 1
    47   12   44 1
    48   13   45 1
    49   13   46 1
    50   14   47 1
    51   15   48 1
    52   16   49 1
    53   17   50 1
    54   20   51 1
    55   20   52 1
    56   20   53 1
    57   21   54 1
    58   21   55 1
    59   21   56 1
    60   22   57 1
    61   22   58 1
    62   22   59 1
    63   23   60 1
    64   23   61 1
    65   23   62 1
    66   24   63 1
    67   24   64 1
    68   24   65 1
    69   25   66 1
    70   25   67 1
    71   26   68 1
    72   26   69 1
    73   27   70 1
@<TRIPOS>MOLECULE
ZINC65739653_4
   61    64     0     0     0
SMALL
USER_CHARGES

mmff94s_NoEstat = 101.95
@<TRIPOS>ATOM
      1 C1         -0.3663   -2.7877   -1.9131 C.2       1 <0>        -0.1356
      2 C2          0.6054   -3.5476   -1.3966 C.2       1 <0>        -0.2882
      3 C3          1.8368   -1.1885    1.2108 C.2       1 <0>        -0.2882
      4 C4          1.3537   -1.6406    0.0409 C.2       1 <0>        -0.0292
      5 C5         -0.4059   -1.3339   -1.6377 C.2       1 <0>         0.6156
      6 C6          5.3264   -7.5193    3.4035 C.2       1 <0>         0.5690
      7 C7          2.7141   -1.9822    2.1278 C.3       1 <0>         0.1382
      8 C8          5.0236   -5.2034    4.3704 C.3       1 <0>         0.0000
      9 C9          4.5960   -3.8776    3.7157 C.3       1 <0>         0.0000
     10 C10         2.5283   -5.4066    0.1803 C.3       1 <0>         0.0000
     11 C11         2.9997   -6.3112    1.3330 C.3       1 <0>         0.0000
     12 C12         4.4210   -6.3312    3.5049 C.3       1 <0>         0.0610
     13 C13         3.1961   -3.3259    1.5564 C.3       1 <0>         0.0000
     14 C14         2.1164   -3.9763    0.6311 C.3       1 <0>         0.0000
     15 C15         3.5639   -4.3034    2.6771 C.3       1 <0>         0.0000
     16 C16         1.7362   -2.9997   -0.5456 C.3       1 <0>         0.2764
     17 C17         4.1115   -5.6474    2.1549 C.3       1 <0>         0.0000
     18 C18         2.9232   -2.7712   -1.5164 C.3       1 <0>         0.0000
     19 C19         5.3940   -5.5117    1.2930 C.3       1 <0>         0.0000
     20 C20         9.0814   -7.5158    3.5095 C.3       1 <0>         0.0000
     21 C21         7.5433   -9.2010    4.5501 C.3       1 <0>         0.0000
     22 C22         7.6201   -8.9406    2.0571 C.3       1 <0>         0.0000
     23 C23         7.7165   -8.2050    3.3987 C.3       1 <0>         0.3001
     24 N1          0.4292   -0.8776   -0.6414 N.am      1 <0>        -0.5390
     25 N2          6.6712   -7.2096    3.4739 N.am      1 <0>        -0.7301
     26 O1         -1.1991   -0.6166   -2.2438 O.2       1 <0>        -0.5700
     27 O2          4.8431   -8.6378    3.2723 O.2       1 <0>        -0.5700
     28 H1         -1.1238   -3.2053   -2.5660 H         1 <0>         0.1500
     29 H2          0.6198   -4.5962   -1.6780 H         1 <0>         0.1500
     30 H3          1.5213   -0.2169    1.5854 H         1 <0>         0.1500
     31 H4          3.5846   -1.3743    2.4026 H         1 <0>         0.0000
     32 H5          2.1460   -2.1496    3.0517 H         1 <0>         0.0000
     33 H6          6.1156   -5.2581    4.4410 H         1 <0>         0.0000
     34 H7          4.6332   -5.2698    5.3926 H         1 <0>         0.0000
     35 H8          4.1778   -3.1860    4.4541 H         1 <0>         0.0000
     36 H9          5.4560   -3.3841    3.2497 H         1 <0>         0.0000
     37 H10         3.3173   -5.3577   -0.5759 H         1 <0>         0.0000
     38 H11         1.6784   -5.9063   -0.2971 H         1 <0>         0.0000
     39 H12         2.1379   -6.5357    1.9748 H         1 <0>         0.0000
     40 H13         3.3410   -7.2719    0.9290 H         1 <0>         0.0000
     41 H14         3.4902   -6.6798    3.9720 H         1 <0>         0.0000
     42 H15         4.0965   -3.1172    0.9690 H         1 <0>         0.0000
     43 H16         1.2104   -4.1115    1.2447 H         1 <0>         0.0000
     44 H17         2.6334   -4.5038    3.2352 H         1 <0>         0.0000
     45 H18         3.7592   -2.3786   -0.9544 H         1 <0>         0.0000
     46 H19         2.6180   -2.0647   -2.2759 H         1 <0>         0.0000
     47 H20         3.1872   -3.7169   -1.9689 H         1 <0>         0.0000
     48 H21         6.1632   -5.0425    1.8902 H         1 <0>         0.0000
     49 H22         5.1666   -4.9032    0.4292 H         1 <0>         0.0000
     50 H23         5.7085   -6.4988    0.9845 H         1 <0>         0.0000
     51 H24         9.2295   -6.7968    2.6953 H         1 <0>         0.0000
     52 H25         9.1795   -6.9753    4.4574 H         1 <0>         0.0000
     53 H26         9.8980   -8.2448    3.4504 H         1 <0>         0.0000
     54 H27         6.5727   -9.7074    4.4922 H         1 <0>         0.0000
     55 H28         7.5865   -8.6942    5.5211 H         1 <0>         0.0000
     56 H29         8.3254   -9.9682    4.5350 H         1 <0>         0.0000
     57 H30         6.6519   -9.4436    1.9511 H         1 <0>         0.0000
     58 H31         7.7359   -8.2503    1.2144 H         1 <0>         0.0000
     59 H32         8.3961   -9.7102    1.9709 H         1 <0>         0.0000
     60 H33         0.3580    0.1046   -0.3877 H         1 <0>         0.3700
     61 H34         6.9380   -6.2358    3.5837 H         1 <0>         0.3700
@<TRIPOS>BOND
     1    1    2 2
     2    1    5 1
     3    2   16 1
     4    3    4 2
     5    3    7 1
     6    4   16 1
     7    4   24 1
     8    5   24 am
     9    5   26 2
    10    6   12 1
    11    6   25 am
    12    6   27 2
    13    7   13 1
    14    8    9 1
    15    8   12 1
    16    9   15 1
    17   10   11 1
    18   10   14 1
    19   11   17 1
    20   12   17 1
    21   13   14 1
    22   13   15 1
    23   14   16 1
    24   15   17 1
    25   16   18 1
    26   17   19 1
    27   20   23 1
    28   21   23 1
    29   22   23 1
    30   23   25 1
    31    1   28 1
    32    2   29 1
    33    3   30 1
    34    7   31 1
    35    7   32 1
    36    8   33 1
    37    8   34 1
    38    9   35 1
    39    9   36 1
    40   10   37 1
    41   10   38 1
    42   11   39 1
    43   11   40 1
    44   12   41 1
    45   13   42 1
    46   14   43 1
    47   15   44 1
    48   18   45 1
    49   18   46 1
    50   18   47 1
    51   19   48 1
    52   19   49 1
    53   19   50 1
    54   20   51 1
    55   20   52 1
    56   20   53 1
    57   21   54 1
    58   21   55 1
    59   21   56 1
    60   22   57 1
    61   22   58 1
    62   22   59 1
    63   24   60 1
    64   25   61 1
@<TRIPOS>MOLECULE
ZINC03881406_184
   66    69     0     0     0
SMALL
USER_CHARGES

mmff94s_NoEstat = 91.56
@<TRIPOS>ATOM
      1 C1         -0.3188   -1.4211   -1.8291 C.2       1 <0>         0.4480
      2 C2          5.0540   -7.4143    3.9450 C.2       1 <0>         0.4480
      3 C3          7.4613  -11.3498    8.1101 C.2       1 <0>         0.9060
      4 C4          6.0903   -9.8124    5.7408 C.2       1 <0>         0.6590
      5 C5         -0.2081   -2.8748   -2.2231 C.3       1 <0>         0.0610
      6 C6          0.8874   -0.7938   -1.1694 C.3       1 <0>         0.0610
      7 C7          0.3765   -3.7218   -1.0949 C.3       1 <0>         0.0000
      8 C8          5.0756   -4.9580    4.5352 C.3       1 <0>         0.0000
      9 C9          4.7658   -3.7036    3.6987 C.3       1 <0>         0.0000
     10 C10         2.5925   -1.0403    0.6734 C.3       1 <0>         0.0000
     11 C11         3.0257   -1.8584    1.8866 C.3       1 <0>         0.0000
     12 C12         2.3400   -5.4884    0.5270 C.3       1 <0>         0.0000
     13 C13         2.7772   -6.2633    1.7833 C.3       1 <0>         0.0000
     14 C14         4.3009   -6.1214    3.8800 C.3       1 <0>         0.0610
     15 C15         1.3977   -1.6878   -0.0359 C.3       1 <0>         0.0000
     16 C16         3.3226   -3.3206    1.5273 C.3       1 <0>         0.0000
     17 C17         3.6365   -4.1512    2.7769 C.3       1 <0>         0.0000
     18 C18         2.1140   -3.9746    0.7829 C.3       1 <0>         0.0000
     19 C19         1.6944   -3.1532   -0.4940 C.3       1 <0>         0.0000
     20 C20         3.9978   -5.6168    2.4519 C.3       1 <0>         0.0000
     21 C21         2.7999   -3.2126   -1.5773 C.3       1 <0>         0.0000
     22 C22         5.2411   -5.7690    1.5366 C.3       1 <0>         0.0000
     23 C23         4.3856   -8.5422    4.7020 C.3       1 <0>         0.3410
     24 C24         7.9539  -11.2555    6.6608 C.3       1 <0>        -0.1060
     25 C25         6.8881  -11.0888    5.5845 C.3       1 <0>         0.0610
     26 O1          6.6974  -12.3147    8.3861 O.co2     1 <0>        -0.9000
     27 O2         -1.3050   -0.7495   -2.1313 O.2       1 <0>        -0.5700
     28 O3          6.1538   -7.5409    3.4088 O.2       1 <0>        -0.5700
     29 O4          7.8965  -10.4312    8.8633 O.co2     1 <0>        -0.9000
     30 O5          6.2223   -9.0034    6.6489 O.2       1 <0>        -0.5700
     31 O6          5.2001   -9.6955    4.6999 O.3       1 <0>        -0.4300
     32 H1         -1.2074   -3.2476   -2.4740 H         1 <0>         0.0000
     33 H2          0.4042   -2.9384   -3.1281 H         1 <0>         0.0000
     34 H3          1.6504   -0.6113   -1.9323 H         1 <0>         0.0000
     35 H4          0.5866    0.1801   -0.7649 H         1 <0>         0.0000
     36 H5         -0.3747   -3.8024   -0.2977 H         1 <0>         0.0000
     37 H6          0.5324   -4.7359   -1.4803 H         1 <0>         0.0000
     38 H7          6.1566   -5.1336    4.5718 H         1 <0>         0.0000
     39 H8          4.7387   -4.8223    5.5693 H         1 <0>         0.0000
     40 H9          4.4693   -2.8649    4.3368 H         1 <0>         0.0000
     41 H10         5.6496   -3.3922    3.1311 H         1 <0>         0.0000
     42 H11         2.3231   -0.0313    1.0089 H         1 <0>         0.0000
     43 H12         3.4356   -0.9219   -0.0169 H         1 <0>         0.0000
     44 H13         3.9134   -1.3908    2.3281 H         1 <0>         0.0000
     45 H14         2.2361   -1.8157    2.6479 H         1 <0>         0.0000
     46 H15         3.0853   -5.6368   -0.2603 H         1 <0>         0.0000
     47 H16         1.4137   -5.9470    0.1638 H         1 <0>         0.0000
     48 H17         1.9339   -6.2917    2.4859 H         1 <0>         0.0000
     49 H18         2.9905   -7.3053    1.5162 H         1 <0>         0.0000
     50 H19         3.3609   -6.2748    4.4315 H         1 <0>         0.0000
     51 H20         0.5830   -1.7409    0.7038 H         1 <0>         0.0000
     52 H21         4.2012   -3.3194    0.8744 H         1 <0>         0.0000
     53 H22         2.7219   -4.1486    3.3938 H         1 <0>         0.0000
     54 H23         1.2600   -3.9234    1.4773 H         1 <0>         0.0000
     55 H24         3.7164   -2.8176   -1.1605 H         1 <0>         0.0000
     56 H25         2.4882   -2.6172   -2.4248 H         1 <0>         0.0000
     57 H26         2.9391   -4.2429   -1.8757 H         1 <0>         0.0000
     58 H27         6.0880   -5.3080    2.0251 H         1 <0>         0.0000
     59 H28         5.0385   -5.2784    0.5950 H         1 <0>         0.0000
     60 H29         5.4267   -6.8221    1.3787 H         1 <0>         0.0000
     61 H30         3.4247   -8.7807    4.2380 H         1 <0>         0.0000
     62 H31         4.2282   -8.2317    5.7383 H         1 <0>         0.0000
     63 H32         8.5054  -12.1828    6.4596 H         1 <0>         0.0000
     64 H33         8.6776  -10.4329    6.5993 H         1 <0>         0.0000
     65 H34         6.1964  -11.9384    5.5985 H         1 <0>         0.0000
     66 H35         7.3772  -11.0518    4.6044 H         1 <0>         0.0000
@<TRIPOS>BOND
     1    1    5 1
     2    1    6 1
     3    1   27 2
     4    2   14 1
     5    2   23 1
     6    2   28 2
     7    3   24 1
     8    3   26 1
     9    3   29 2
    10    4   25 1
    11    4   30 2
    12    4   31 1
    13    5    7 1
    14    6   15 1
    15    7   19 1
    16    8    9 1
    17    8   14 1
    18    9   17 1
    19   10   11 1
    20   10   15 1
    21   11   16 1
    22   12   13 1
    23   12   18 1
    24   13   20 1
    25   14   20 1
    26   15   19 1
    27   16   17 1
    28   16   18 1
    29   17   20 1
    30   18   19 1
    31   19   21 1
    32   20   22 1
    33   23   31 1
    34   24   25 1
    35    5   32 1
    36    5   33 1
    37    6   34 1
    38    6   35 1
    39    7   36 1
    40    7   37 1
    41    8   38 1
    42    8   39 1
    43    9   40 1
    44    9   41 1
    45   10   42 1
    46   10   43 1
    47   11   44 1
    48   11   45 1
    49   12   46 1
    50   12   47 1
    51   13   48 1
    52   13   49 1
    53   14   50 1
    54   15   51 1
    55   16   52 1
    56   17   53 1
    57   18   54 1
    58   21   55 1
    59   21   56 1
    60   21   57 1
    61   22   58 1
    62   22   59 1
    63   22   60 1
    64   23   61 1
    65   23   62 1
    66   24   63 1
    67   24   64 1
    68   25   65 1
    69   25   66 1
@<TRIPOS>MOLECULE
ZINC06036223_2
   64    67     0     0     0
SMALL
USER_CHARGES

mmff94s_NoEstat = 90.44
@<TRIPOS>ATOM
      1 C1          1.6534   -1.3095    1.3599 C.2       1 <0>        -0.2882
      2 C2          1.3781   -1.7420    0.1172 C.2       1 <0>        -0.2764
      3 C3          7.8761   -9.0881    6.5203 C.2       1 <0>         0.9060
      4 C4          2.4192   -2.0864    2.3822 C.3       1 <0>         0.1382
      5 C5          0.6156   -0.8535   -0.8385 C.3       1 <0>         0.1382
      6 C6          4.4974   -3.7285    4.0299 C.3       1 <0>         0.0000
      7 C7          2.8366   -5.4240    0.3542 C.3       1 <0>         0.0000
      8 C8          5.0993   -4.9987    4.6590 C.3       1 <0>         0.0000
      9 C9         -0.1258   -2.8900   -2.1188 C.3       1 <0>         0.0000
     10 C10         0.5870   -3.7936   -1.1137 C.3       1 <0>         0.0000
     11 C11         3.3552   -6.2875    1.5172 C.3       1 <0>         0.0000
     12 C12         3.1587   -3.3024    1.8042 C.3       1 <0>         0.0000
     13 C13         2.2415   -4.0598    0.8002 C.3       1 <0>         0.0000
     14 C14         3.5908   -4.2564    2.9223 C.3       1 <0>         0.0000
     15 C15         4.6588   -6.1785    3.7607 C.3       1 <0>         0.0000
     16 C16        -0.5668   -1.5825   -1.4707 C.3       1 <0>         0.2800
     17 C17         1.7987   -3.1261   -0.3967 C.3       1 <0>         0.1382
     18 C18         4.3327   -5.5050    2.4052 C.3       1 <0>         0.0000
     19 C19         2.9499   -2.9291   -1.4123 C.3       1 <0>         0.0000
     20 C20         5.6258   -5.1876    1.6141 C.3       1 <0>         0.0000
     21 C21         5.0188   -8.5887    3.1918 C.3       1 <0>         0.0000
     22 C22         7.2889   -8.7535    5.1462 C.3       1 <0>        -0.1060
     23 C23         6.2910   -7.5971    5.1180 C.3       1 <0>         0.0000
     24 C24         5.6747   -7.3113    3.7309 C.3       1 <0>         0.0000
     25 O1          8.7773   -9.9716    6.5383 O.co2     1 <0>        -0.9000
     26 O2          7.3664   -8.4410    7.4793 O.co2     1 <0>        -0.9000
     27 O3         -1.1734   -0.7467   -2.4512 O.3       1 <0>        -0.6800
     28 H1          1.3109   -0.3262    1.6738 H         1 <0>         0.1500
     29 H2          3.1469   -1.4187    2.8590 H         1 <0>         0.0000
     30 H3          1.7155   -2.3977    3.1643 H         1 <0>         0.0000
     31 H4          0.2452    0.0524   -0.3413 H         1 <0>         0.0000
     32 H5          1.2938   -0.4875   -1.6195 H         1 <0>         0.0000
     33 H6          3.9421   -3.1431    4.7699 H         1 <0>         0.0000
     34 H7          5.2910   -3.0882    3.6286 H         1 <0>         0.0000
     35 H8          3.6573   -5.2731   -0.3527 H         1 <0>         0.0000
     36 H9          2.0746   -6.0017   -0.1810 H         1 <0>         0.0000
     37 H10         6.1899   -4.9063    4.7134 H         1 <0>         0.0000
     38 H11         4.7329   -5.1417    5.6817 H         1 <0>         0.0000
     39 H12         0.5207   -2.6883   -2.9817 H         1 <0>         0.0000
     40 H13        -1.0016   -3.4085   -2.5283 H         1 <0>         0.0000
     41 H14        -0.1519   -4.1122   -0.3656 H         1 <0>         0.0000
     42 H15         0.9065   -4.7023   -1.6375 H         1 <0>         0.0000
     43 H16         2.4964   -6.6297    2.1090 H         1 <0>         0.0000
     44 H17         3.8339   -7.1897    1.1181 H         1 <0>         0.0000
     45 H18         4.0476   -2.9320    1.2809 H         1 <0>         0.0000
     46 H19         1.3277   -4.3127    1.3624 H         1 <0>         0.0000
     47 H20         2.6656   -4.5906    3.4222 H         1 <0>         0.0000
     48 H21         3.7294   -6.5889    4.1824 H         1 <0>         0.0000
     49 H22        -1.3259   -1.7889   -0.7068 H         1 <0>         0.0000
     50 H23         3.2570   -3.8979   -1.7835 H         1 <0>         0.0000
     51 H24         3.7768   -2.4429   -0.9119 H         1 <0>         0.0000
     52 H25         2.5938   -2.3135   -2.2278 H         1 <0>         0.0000
     53 H26         6.2999   -4.6370    2.2563 H         1 <0>         0.0000
     54 H27         5.3665   -4.5932    0.7484 H         1 <0>         0.0000
     55 H28         6.0816   -6.1185    1.3050 H         1 <0>         0.0000
     56 H29         4.2028   -8.9178    3.8439 H         1 <0>         0.0000
     57 H30         5.7481   -9.4038    3.1350 H         1 <0>         0.0000
     58 H31         4.6090   -8.4299    2.1884 H         1 <0>         0.0000
     59 H32         6.8390   -9.6521    4.7091 H         1 <0>         0.0000
     60 H33         8.1388   -8.4938    4.5020 H         1 <0>         0.0000
     61 H34         6.8004   -6.6937    5.4779 H         1 <0>         0.0000
     62 H35         5.4869   -7.8004    5.8368 H         1 <0>         0.0000
     63 H36         6.4790   -7.0393    3.0331 H         1 <0>         0.0000
     64 H37        -1.4685    0.0537   -1.9893 H         1 <0>         0.4000
@<TRIPOS>BOND
     1    1    2 2
     2    1    4 1
     3    2    5 1
     4    2   17 1
     5    3   22 1
     6    3   25 1
     7    3   26 2
     8    4   12 1
     9    5   16 1
    10    6    8 1
    11    6   14 1
    12    7   11 1
    13    7   13 1
    14    8   15 1
    15    9   10 1
    16    9   16 1
    17   10   17 1
    18   11   18 1
    19   12   13 1
    20   12   14 1
    21   13   17 1
    22   14   18 1
    23   15   18 1
    24   15   24 1
    25   16   27 1
    26   17   19 1
    27   18   20 1
    28   21   24 1
    29   22   23 1
    30   23   24 1
    31    1   28 1
    32    4   29 1
    33    4   30 1
    34    5   31 1
    35    5   32 1
    36    6   33 1
    37    6   34 1
    38    7   35 1
    39    7   36 1
    40    8   37 1
    41    8   38 1
    42    9   39 1
    43    9   40 1
    44   10   41 1
    45   10   42 1
    46   11   43 1
    47   11   44 1
    48   12   45 1
    49   13   46 1
    50   14   47 1
    51   15   48 1
    52   16   49 1
    53   19   50 1
    54   19   51 1
    55   19   52 1
    56   20   53 1
    57   20   54 1
    58   20   55 1
    59   21   56 1
    60   21   57 1
    61   21   58 1
    62   22   59 1
    63   22   60 1
    64   23   61 1
    65   23   62 1
    66   24   63 1
    67   27   64 1
@<TRIPOS>MOLECULE
106765-04-2_0
   51    54     0     0     0
SMALL
USER_CHARGES

mmff94s_NoEstat = 73.03
@<TRIPOS>ATOM
      1 C1          2.2869   -7.3105    4.7858 C.1       1 <0>        -0.1770
      2 C2          3.2489   -6.8833    4.2088 C.1       1 <0>        -0.2000
      3 C3          1.8800   -1.2370    1.3367 C.2       1 <0>        -0.1500
      4 C4          0.2735   -0.9196   -0.4448 C.2       1 <0>        -0.1356
      5 C5          2.7965   -1.9683    1.9862 C.2       1 <0>        -0.2882
      6 C6          1.2366   -1.6751    0.1076 C.2       1 <0>        -0.1382
      7 C7         -0.3729   -1.3216   -1.7173 C.2       1 <0>         0.4946
      8 C8          5.8072   -8.0243    4.4604 C.2       1 <0>         0.6590
      9 C9          0.1173   -2.5680   -2.4106 C.3       1 <0>         0.0610
     10 C10         0.6194   -3.5941   -1.4061 C.3       1 <0>         0.0000
     11 C11         4.6074   -3.8878    3.6983 C.3       1 <0>         0.0000
     12 C12         2.5298   -5.3866    0.1407 C.3       1 <0>         0.0000
     13 C13         5.0845   -5.2161    4.3222 C.3       1 <0>         0.0000
     14 C14         2.9933   -6.3135    1.2814 C.3       1 <0>         0.0000
     15 C15         3.2305   -3.3324    1.5171 C.3       1 <0>         0.1382
     16 C16         1.7012   -3.0021   -0.4879 C.3       1 <0>         0.1382
     17 C17         2.1144   -3.9854    0.6424 C.3       1 <0>         0.0000
     18 C18         3.5628   -4.2978    2.6613 C.3       1 <0>         0.0000
     19 C19         4.4325   -6.3582    3.4994 C.3       1 <0>         0.4800
     20 C20         4.0881   -5.6619    2.1482 C.3       1 <0>         0.0000
     21 C21         6.7630   -9.1260    4.1159 C.3       1 <0>         0.0610
     22 C22         5.3808   -5.5486    1.2849 C.3       1 <0>         0.0000
     23 O1         -1.2456   -0.6092   -2.2102 O.2       1 <0>        -0.5700
     24 O2          5.4938   -7.7218    5.6037 O.2       1 <0>        -0.5700
     25 O3          5.3524   -7.4263    3.3169 O.3       1 <0>        -0.4300
     26 H1          1.4333   -7.6894    5.2976 H         1 <0>         0.1770
     27 H2          1.6126   -0.2619    1.7353 H         1 <0>         0.1500
     28 H3         -0.0558    0.0167   -0.0053 H         1 <0>         0.1500
     29 H4          3.2642   -1.5463    2.8709 H         1 <0>         0.1500
     30 H5         -0.7117   -2.9986   -2.9826 H         1 <0>         0.0000
     31 H6          0.9104   -2.2832   -3.1107 H         1 <0>         0.0000
     32 H7         -0.2234   -3.9572   -0.8029 H         1 <0>         0.0000
     33 H8          1.0139   -4.4527   -1.9606 H         1 <0>         0.0000
     34 H9          4.1850   -3.2256    4.4611 H         1 <0>         0.0000
     35 H10         5.4496   -3.3619    3.2345 H         1 <0>         0.0000
     36 H11         3.3135   -5.2945   -0.6193 H         1 <0>         0.0000
     37 H12         1.6808   -5.8743   -0.3516 H         1 <0>         0.0000
     38 H13         6.1796   -5.2629    4.2897 H         1 <0>         0.0000
     39 H14         4.8065   -5.2602    5.3826 H         1 <0>         0.0000
     40 H15         2.1118   -6.5531    1.8880 H         1 <0>         0.0000
     41 H16         3.3472   -7.2637    0.8630 H         1 <0>         0.0000
     42 H17         4.1275   -3.1673    0.9082 H         1 <0>         0.0000
     43 H18         2.5902   -2.7938   -1.1013 H         1 <0>         0.0000
     44 H19         1.2297   -4.1399    1.2819 H         1 <0>         0.0000
     45 H20         2.6250   -4.4606    3.2170 H         1 <0>         0.0000
     46 H21         6.2178  -10.0650    3.9925 H         1 <0>         0.0000
     47 H22         7.5193   -9.2195    4.8992 H         1 <0>         0.0000
     48 H23         7.2658   -8.8886    3.1738 H         1 <0>         0.0000
     49 H24         6.1504   -5.0929    1.8876 H         1 <0>         0.0000
     50 H25         5.1595   -4.9375    0.4243 H         1 <0>         0.0000
     51 H26         5.6725   -6.5418    0.9820 H         1 <0>         0.0000
@<TRIPOS>BOND
     1    1    2 3
     2    2   19 1
     3    3    5 2
     4    3    6 1
     5    4    6 2
     6    4    7 1
     7    5   15 1
     8    6   16 1
     9    7    9 1
    10    7   23 2
    11    8   21 1
    12    8   24 2
    13    8   25 1
    14    9   10 1
    15   10   16 1
    16   11   13 1
    17   11   18 1
    18   12   14 1
    19   12   17 1
    20   13   19 1
    21   14   20 1
    22   15   17 1
    23   15   18 1
    24   16   17 1
    25   18   20 1
    26   19   20 1
    27   19   25 1
    28   20   22 1
    29    1   26 1
    30    3   27 1
    31    4   28 1
    32    5   29 1
    33    9   30 1
    34    9   31 1
    35   10   32 1
    36   10   33 1
    37   11   34 1
    38   11   35 1
    39   12   36 1
    40   12   37 1
    41   13   38 1
    42   13   39 1
    43   14   40 1
    44   14   41 1
    45   15   42 1
    46   16   43 1
    47   17   44 1
    48   18   45 1
    49   21   46 1
    50   21   47 1
    51   21   48 1
    52   22   49 1
    53   22   50 1
    54   22   51 1
@<TRIPOS>MOLECULE
2464-18-8_1
   69    72     0     0     0
SMALL
USER_CHARGES

mmff94s_NoEstat = 108.06
@<TRIPOS>ATOM
      1 C1          7.7976   -8.9635    6.5406 C.2       1 <0>         0.6590
      2 C2          4.2472   -3.9365    4.0908 C.3       1 <0>         0.0000
      3 C3          4.8478   -5.2193    4.6919 C.3       1 <0>         0.0000
      4 C4          0.4958   -2.8535   -2.6435 C.3       1 <0>         0.0000
      5 C5          1.0822   -3.8115   -1.5981 C.3       1 <0>         0.0000
      6 C6          0.6344   -0.9533   -0.9647 C.3       1 <0>         0.0000
      7 C7          1.9672   -1.2121    1.1806 C.3       1 <0>         0.0000
      8 C8          3.1231   -5.3877    0.1144 C.3       1 <0>         0.0000
      9 C9          3.4924   -4.4152    2.8512 C.3       1 <0>         0.0000
     10 C10         1.1818   -1.9418    0.0801 C.3       1 <0>         0.0000
     11 C11         2.3863   -4.1081    0.6048 C.3       1 <0>         0.0000
     12 C12         3.1634   -3.3861    1.7585 C.3       1 <0>         0.0000
     13 C13         4.5445   -6.3492    3.6819 C.3       1 <0>         0.0000
     14 C14        -0.2219   -1.6606   -2.0159 C.3       1 <0>         0.2800
     15 C15         2.3823   -2.1701    2.3001 C.3       1 <0>         0.2800
     16 C16         3.5443   -6.3443    1.2483 C.3       1 <0>         0.2800
     17 C17         1.9996   -3.1107   -0.5554 C.3       1 <0>         0.0000
     18 C18         4.3461   -5.5998    2.3367 C.3       1 <0>         0.0000
     19 C19         3.2677   -2.5992   -1.2880 C.3       1 <0>         0.0000
     20 C20         5.7157   -5.1693    1.7447 C.3       1 <0>         0.0000
     21 C21         5.0331   -8.7116    3.0178 C.3       1 <0>         0.0000
     22 C22         7.3916   -8.5794    5.1355 C.3       1 <0>         0.0610
     23 C23         6.0742   -7.8015    5.1155 C.3       1 <0>         0.0000
     24 C24         5.5918   -7.4533    3.6925 C.3       1 <0>         0.0000
     25 O1          7.1659   -8.7104    7.5570 O.2       1 <0>        -0.5700
     26 O2          8.9797   -9.6335    6.5496 O.3       1 <0>        -0.6500
     27 O3         -1.4276   -2.1054   -1.3941 O.3       1 <0>        -0.6800
     28 O4          1.1977   -2.5813    2.9821 O.3       1 <0>        -0.6800
     29 O5          2.3543   -6.9305    1.7749 O.3       1 <0>        -0.6800
     30 H1          3.5834   -3.4375    4.8045 H         1 <0>         0.0000
     31 H2          5.0423   -3.2292    3.8295 H         1 <0>         0.0000
     32 H3          5.9236   -5.0880    4.8543 H         1 <0>         0.0000
     33 H4          4.3975   -5.4457    5.6648 H         1 <0>         0.0000
     34 H5          1.2920   -2.4957   -3.3057 H         1 <0>         0.0000
     35 H6         -0.2064   -3.4181   -3.2692 H         1 <0>         0.0000
     36 H7          0.2560   -4.3138   -1.0784 H         1 <0>         0.0000
     37 H8          1.6333   -4.5944   -2.1319 H         1 <0>         0.0000
     38 H9          0.0234   -0.2002   -0.4512 H         1 <0>         0.0000
     39 H10         1.4539   -0.4137   -1.4519 H         1 <0>         0.0000
     40 H11         2.8515   -0.7193    0.7617 H         1 <0>         0.0000
     41 H12         1.3335   -0.4218    1.6029 H         1 <0>         0.0000
     42 H13         2.4610   -5.9389   -0.5632 H         1 <0>         0.0000
     43 H14         4.0092   -5.1153   -0.4658 H         1 <0>         0.0000
     44 H15         2.5321   -4.8124    3.2175 H         1 <0>         0.0000
     45 H16         0.3008   -2.3868    0.5672 H         1 <0>         0.0000
     46 H17         1.4383   -4.4628    1.0382 H         1 <0>         0.0000
     47 H18         4.1058   -2.9947    1.3619 H         1 <0>         0.0000
     48 H19         3.5919   -6.8079    3.9841 H         1 <0>         0.0000
     49 H20        -0.5071   -0.9474   -2.7973 H         1 <0>         0.0000
     50 H21         2.9953   -1.6202    3.0217 H         1 <0>         0.0000
     51 H22         4.1399   -7.1636    0.8268 H         1 <0>         0.0000
     52 H23         3.9092   -2.1111   -0.5678 H         1 <0>         0.0000
     53 H24         2.9650   -1.9003   -2.0549 H         1 <0>         0.0000
     54 H25         3.7755   -3.4448   -1.7302 H         1 <0>         0.0000
     55 H26         6.2397   -6.0539    1.4132 H         1 <0>         0.0000
     56 H27         6.2795   -4.6647    2.5157 H         1 <0>         0.0000
     57 H28         5.5362   -4.5040    0.9127 H         1 <0>         0.0000
     58 H29         4.1621   -9.0957    3.5591 H         1 <0>         0.0000
     59 H30         5.7870   -9.5057    2.9952 H         1 <0>         0.0000
     60 H31         4.7280   -8.5045    1.9865 H         1 <0>         0.0000
     61 H32         7.2831   -9.4982    4.5486 H         1 <0>         0.0000
     62 H33         8.1979   -7.9720    4.7122 H         1 <0>         0.0000
     63 H34         6.1841   -6.8824    5.7058 H         1 <0>         0.0000
     64 H35         5.3026   -8.3982    5.6200 H         1 <0>         0.0000
     65 H36         6.4591   -7.1197    3.1043 H         1 <0>         0.0000
     66 H37         9.2954   -9.9034    7.4387 H         1 <0>         0.5000
     67 H38        -1.9654   -2.5052   -2.0941 H         1 <0>         0.4000
     68 H39         0.7891   -1.7752    3.3323 H         1 <0>         0.4000
     69 H40         1.9338   -7.4025    1.0406 H         1 <0>         0.4000
@<TRIPOS>BOND
     1    1   22 1
     2    1   25 2
     3    1   26 1
     4    2    3 1
     5    2    9 1
     6    3   13 1
     7    4    5 1
     8    4   14 1
     9    5   17 1
    10    6   10 1
    11    6   14 1
    12    7   10 1
    13    7   15 1
    14    8   11 1
    15    8   16 1
    16    9   12 1
    17    9   18 1
    18   10   17 1
    19   11   12 1
    20   11   17 1
    21   12   15 1
    22   13   18 1
    23   13   24 1
    24   14   27 1
    25   15   28 1
    26   16   18 1
    27   16   29 1
    28   17   19 1
    29   18   20 1
    30   21   24 1
    31   22   23 1
    32   23   24 1
    33    2   30 1
    34    2   31 1
    35    3   32 1
    36    3   33 1
    37    4   34 1
    38    4   35 1
    39    5   36 1
    40    5   37 1
    41    6   38 1
    42    6   39 1
    43    7   40 1
    44    7   41 1
    45    8   42 1
    46    8   43 1
    47    9   44 1
    48   10   45 1
    49   11   46 1
    50   12   47 1
    51   13   48 1
    52   14   49 1
    53   15   50 1
    54   16   51 1
    55   19   52 1
    56   19   53 1
    57   19   54 1
    58   20   55 1
    59   20   56 1
    60   20   57 1
    61   21   58 1
    62   21   59 1
    63   21   60 1
    64   22   61 1
    65   22   62 1
    66   23   63 1
    67   23   64 1
    68   24   65 1
    69   26   66 1
    70   27   67 1
    71   28   68 1
    72   29   69 1
@<TRIPOS>MOLECULE
6561-58-6_5
   74    77     0     0     0
SMALL
USER_CHARGES

mmff94s_NoEstat = 94.84
@<TRIPOS>ATOM
      1 C1          1.7821   -1.2401    1.2310 C.2       1 <0>        -0.2882
      2 C2          1.3937   -1.6553    0.0128 C.2       1 <0>        -0.2764
      3 C3          8.5264  -11.0901    7.7836 C.2       1 <0>         0.6590
      4 C4          2.5176   -2.0821    2.2235 C.3       1 <0>         0.1382
      5 C5          0.6769   -0.7020   -0.9153 C.3       1 <0>         0.1382
      6 C6          4.5000   -3.9164    3.7842 C.3       1 <0>         0.0000
      7 C7          2.4669   -5.4684    0.2344 C.3       1 <0>         0.0000
      8 C8          4.9989   -5.2361    4.4017 C.3       1 <0>         0.0000
      9 C9         -0.3455   -2.6628   -2.1178 C.3       1 <0>         0.0000
     10 C10         0.3232   -3.6253   -1.1373 C.3       1 <0>         0.0000
     11 C11         2.9557   -6.3685    1.3823 C.3       1 <0>         0.0000
     12 C12         3.0913   -3.3763    1.6274 C.3       1 <0>         0.0000
     13 C13         2.0448   -4.0437    0.6882 C.3       1 <0>         0.0000
     14 C14         3.4823   -4.3579    2.7369 C.3       1 <0>         0.0000
     15 C15         4.3869   -6.3727    3.5493 C.3       1 <0>         0.0000
     16 C16        -0.6092   -1.3085   -1.4696 C.3       1 <0>         0.2800
     17 C17         1.6366   -3.0821   -0.4990 C.3       1 <0>         0.1382
     18 C18         4.0584   -5.6842    2.2021 C.3       1 <0>         0.0000
     19 C19         2.7436   -3.0203   -1.5790 C.3       1 <0>         0.0000
     20 C20         5.3315   -5.5150    1.3364 C.3       1 <0>         0.0000
     21 C21         9.7186  -10.4157    5.6914 C.3       1 <0>         0.0000
     22 C22         4.4543   -8.8161    3.0203 C.3       1 <0>         0.0000
     23 C23         6.8413   -9.0934    4.8892 C.3       1 <0>         0.0000
     24 C24         7.4991   -9.3363    6.2553 C.3       1 <0>         0.0000
     25 C25         5.9483   -7.8488    4.8524 C.3       1 <0>         0.0000
     26 C26         8.3549  -10.6083    6.3541 C.3       1 <0>         0.0610
     27 C27         5.2745   -7.6073    3.4841 C.3       1 <0>         0.0000
     28 O1          8.5411  -10.3352    8.7490 O.2       1 <0>        -0.5700
     29 O2          8.6649  -12.4331    7.9003 O.3       1 <0>        -0.6500
     30 O3         -1.1782   -0.4244   -2.4301 O.3       1 <0>        -0.6800
     31 H1          1.5633   -0.2224    1.5458 H         1 <0>         0.1500
     32 H2          3.3372   -1.4900    2.6483 H         1 <0>         0.0000
     33 H3          1.8299   -2.3078    3.0481 H         1 <0>         0.0000
     34 H4          0.4324    0.2439   -0.4147 H         1 <0>         0.0000
     35 H5          1.3452   -0.4191   -1.7384 H         1 <0>         0.0000
     36 H6          4.0517   -3.2669    4.5430 H         1 <0>         0.0000
     37 H7          5.3330   -3.3688    3.3292 H         1 <0>         0.0000
     38 H8          3.2580   -5.4137   -0.5187 H         1 <0>         0.0000
     39 H9          1.6195   -5.9680   -0.2485 H         1 <0>         0.0000
     40 H10         6.0944   -5.2594    4.3951 H         1 <0>         0.0000
     41 H11         4.6771   -5.3275    5.4451 H         1 <0>         0.0000
     42 H12         0.2694   -2.5409   -3.0179 H         1 <0>         0.0000
     43 H13        -1.2925   -3.0900   -2.4699 H         1 <0>         0.0000
     44 H14        -0.4023   -3.8550   -0.3447 H         1 <0>         0.0000
     45 H15         0.5153   -4.5688   -1.6618 H         1 <0>         0.0000
     46 H16         2.1000   -6.6108    2.0257 H         1 <0>         0.0000
     47 H17         3.3136   -7.3211    0.9736 H         1 <0>         0.0000
     48 H18         3.9837   -3.1086    1.0503 H         1 <0>         0.0000
     49 H19         1.1422   -4.1915    1.3036 H         1 <0>         0.0000
     50 H20         2.5565   -4.5861    3.2921 H         1 <0>         0.0000
     51 H21         3.4445   -6.6771    4.0280 H         1 <0>         0.0000
     52 H22        -1.3420   -1.4242   -0.6620 H         1 <0>         0.0000
     53 H23         2.9256   -4.0205   -1.9494 H         1 <0>         0.0000
     54 H24         3.6439   -2.6189   -1.1328 H         1 <0>         0.0000
     55 H25         2.4094   -2.3798   -2.3845 H         1 <0>         0.0000
     56 H26         6.0947   -5.0318    1.9314 H         1 <0>         0.0000
     57 H27         5.0882   -4.9065    0.4758 H         1 <0>         0.0000
     58 H28         5.6686   -6.4927    1.0193 H         1 <0>         0.0000
     59 H29        10.2794   -9.6171    6.1882 H         1 <0>         0.0000
     60 H30        10.3250  -11.3265    5.7332 H         1 <0>         0.0000
     61 H31         9.6040  -10.1434    4.6366 H         1 <0>         0.0000
     62 H32         3.6488   -9.0527    3.7215 H         1 <0>         0.0000
     63 H33         5.0888   -9.7061    2.9467 H         1 <0>         0.0000
     64 H34         4.0094   -8.6369    2.0356 H         1 <0>         0.0000
     65 H35         7.6091   -9.0225    4.1101 H         1 <0>         0.0000
     66 H36         6.2424   -9.9808    4.6561 H         1 <0>         0.0000
     67 H37         8.1219   -8.4672    6.5039 H         1 <0>         0.0000
     68 H38         6.7034   -9.3648    7.0104 H         1 <0>         0.0000
     69 H39         6.5523   -6.9660    5.0907 H         1 <0>         0.0000
     70 H40         5.1808   -7.9272    5.6327 H         1 <0>         0.0000
     71 H41         7.8523  -11.4170    5.8096 H         1 <0>         0.0000
     72 H42         6.0620   -7.4262    2.7374 H         1 <0>         0.0000
     73 H43         8.7793  -12.7731    8.8122 H         1 <0>         0.5000
     74 H44        -1.3610    0.4082   -1.9669 H         1 <0>         0.4000
@<TRIPOS>BOND
     1    1    2 2
     2    1    4 1
     3    2    5 1
     4    2   17 1
     5    3   26 1
     6    3   28 2
     7    3   29 1
     8    4   12 1
     9    5   16 1
    10    6    8 1
    11    6   14 1
    12    7   11 1
    13    7   13 1
    14    8   15 1
    15    9   10 1
    16    9   16 1
    17   10   17 1
    18   11   18 1
    19   12   13 1
    20   12   14 1
    21   13   17 1
    22   14   18 1
    23   15   18 1
    24   15   27 1
    25   16   30 1
    26   17   19 1
    27   18   20 1
    28   21   26 1
    29   22   27 1
    30   23   24 1
    31   23   25 1
    32   24   26 1
    33   25   27 1
    34    1   31 1
    35    4   32 1
    36    4   33 1
    37    5   34 1
    38    5   35 1
    39    6   36 1
    40    6   37 1
    41    7   38 1
    42    7   39 1
    43    8   40 1
    44    8   41 1
    45    9   42 1
    46    9   43 1
    47   10   44 1
    48   10   45 1
    49   11   46 1
    50   11   47 1
    51   12   48 1
    52   13   49 1
    53   14   50 1
    54   15   51 1
    55   16   52 1
    56   19   53 1
    57   19   54 1
    58   19   55 1
    59   20   56 1
    60   20   57 1
    61   20   58 1
    62   21   59 1
    63   21   60 1
    64   21   61 1
    65   22   62 1
    66   22   63 1
    67   22   64 1
    68   23   65 1
    69   23   66 1
    70   24   67 1
    71   24   68 1
    72   25   69 1
    73   25   70 1
    74   26   71 1
    75   27   72 1
    76   29   73 1
    77   30   74 1
@<TRIPOS>MOLECULE
ENE1_18
   67    70     0     0     0
SMALL
USER_CHARGES

mmff94s_NoEstat = 103.98
@<TRIPOS>ATOM
      1 C1          0.5001   -0.8731   -0.5926 C.2       1 <0>        -0.1356
      2 C2          1.5571   -1.5967   -0.1861 C.2       1 <0>        -0.2764
      3 C3         -0.4033   -1.3580   -1.6609 C.2       1 <0>         0.4946
      4 C4          3.0213   -6.2641    1.2744 C.2       1 <0>         0.4480
      5 C5          2.5221   -0.9966    0.8135 C.3       1 <0>         0.1382
      6 C6         -0.0287   -2.6219   -2.3875 C.3       1 <0>         0.0610
      7 C7          2.6043   -5.3898    0.0967 C.3       1 <0>         0.0610
      8 C8          0.6400   -3.5997   -1.4345 C.3       1 <0>         0.0000
      9 C9          4.3966   -3.8977    3.8061 C.3       1 <0>         0.0000
     10 C10         4.7287   -5.2242    4.5080 C.3       1 <0>         0.0000
     11 C11         2.2204   -3.9496    0.5199 C.3       1 <0>         0.0000
     12 C12         3.4859   -4.3086    2.6553 C.3       1 <0>         0.0000
     13 C13         3.2722   -3.3257    1.4936 C.3       1 <0>         0.0000
     14 C14         4.2007   -6.3495    3.5878 C.3       1 <0>         0.0000
     15 C15         2.8298   -1.9333    1.9794 C.3       1 <0>         0.2800
     16 C16         1.8763   -3.0067   -0.6968 C.3       1 <0>         0.1382
     17 C17         4.0655   -5.6666    2.2076 C.3       1 <0>         0.0610
     18 C18         3.0509   -2.8990   -1.6961 C.3       1 <0>         0.0000
     19 C19         5.4108   -5.5970    1.4607 C.3       1 <0>         0.0000
     20 C20         4.5362   -8.6538    2.6717 C.3       1 <0>         0.0000
     21 C21         5.5515   -9.6789    5.0749 C.3       1 <0>         0.0000
     22 C22         5.1436   -8.2051    5.0651 C.3       1 <0>         0.0000
     23 C23         5.5810  -10.2413    6.4900 C.3       1 <0>         0.2800
     24 C24         5.0693   -7.5999    3.6486 C.3       1 <0>         0.0000
     25 O1          6.7400  -11.3636    8.8546 O.3       1 <0>        -0.8167
     26 O2         -1.3876   -0.6939   -1.9792 O.2       1 <0>        -0.5700
     27 O3          2.5919   -7.4088    1.4055 O.2       1 <0>        -0.5700
     28 O4          5.6558   -9.2644    9.5176 O.2       1 <0>        -0.8167
     29 O5          8.0814   -9.3233    9.1503 O.2       1 <0>        -0.8167
     30 O6          1.7034   -2.0052    2.8513 O.3       1 <0>        -0.6800
     31 O7          6.5313   -9.5121    7.2545 O.3       1 <0>        -0.4637
     32 S1          6.7775   -9.9022    8.8298 S.o2      1 <0>         1.6337
     33 H1          0.2985    0.1177   -0.1992 H         1 <0>         0.1500
     34 H2          3.4546   -0.7536    0.2892 H         1 <0>         0.0000
     35 H3          2.1268   -0.0530    1.2108 H         1 <0>         0.0000
     36 H4         -0.9417   -3.0773   -2.7868 H         1 <0>         0.0000
     37 H5          0.6204   -2.3650   -3.2304 H         1 <0>         0.0000
     38 H6          3.4294   -5.3952   -0.6210 H         1 <0>         0.0000
     39 H7          1.7495   -5.8796   -0.3822 H         1 <0>         0.0000
     40 H8         -0.1090   -3.9167   -0.6952 H         1 <0>         0.0000
     41 H9          0.9188   -4.4983   -1.9978 H         1 <0>         0.0000
     42 H10         3.9081   -3.1977    4.4913 H         1 <0>         0.0000
     43 H11         5.3126   -3.4203    3.4401 H         1 <0>         0.0000
     44 H12         5.8096   -5.2965    4.6730 H         1 <0>         0.0000
     45 H13         4.2444   -5.2802    5.4894 H         1 <0>         0.0000
     46 H14         1.2940   -4.0602    1.1055 H         1 <0>         0.0000
     47 H15         2.4927   -4.4905    3.1004 H         1 <0>         0.0000
     48 H16         4.2184   -3.1885    0.9588 H         1 <0>         0.0000
     49 H17         3.1994   -6.6365    3.9413 H         1 <0>         0.0000
     50 H18         3.6392   -1.4859    2.5678 H         1 <0>         0.0000
     51 H19         3.2882   -3.8884   -2.0661 H         1 <0>         0.0000
     52 H20         3.9079   -2.4783   -1.1855 H         1 <0>         0.0000
     53 H21         2.7555   -2.2570   -2.5164 H         1 <0>         0.0000
     54 H22         6.1614   -5.1724    2.1182 H         1 <0>         0.0000
     55 H23         5.2979   -4.9726    0.5814 H         1 <0>         0.0000
     56 H24         5.7060   -6.5977    1.1649 H         1 <0>         0.0000
     57 H25         3.5196   -8.9602    2.9401 H         1 <0>         0.0000
     58 H26         5.1703   -9.5469    2.6678 H         1 <0>         0.0000
     59 H27         4.5046   -8.2561    1.6518 H         1 <0>         0.0000
     60 H28         4.8597  -10.2782    4.4724 H         1 <0>         0.0000
     61 H29         6.5397   -9.8030    4.6149 H         1 <0>         0.0000
     62 H30         5.8711   -7.6360    5.6584 H         1 <0>         0.0000
     63 H31         4.1737   -8.0926    5.5662 H         1 <0>         0.0000
     64 H32         5.8740  -11.2960    6.4847 H         1 <0>         0.0000
     65 H33         4.6017  -10.1455    6.9698 H         1 <0>         0.0000
     66 H34         6.0868   -7.3344    3.3283 H         1 <0>         0.0000
     67 H35         1.5423   -1.1031    3.1677 H         1 <0>         0.4000
@<TRIPOS>BOND
     1    1    2 2
     2    1    3 1
     3    2    5 1
     4    2   16 1
     5    3    6 1
     6    3   26 2
     7    4    7 1
     8    4   17 1
     9    4   27 2
    10    5   15 1
    11    6    8 1
    12    7   11 1
    13    8   16 1
    14    9   10 1
    15    9   12 1
    16   10   14 1
    17   11   13 1
    18   11   16 1
    19   12   13 1
    20   12   17 1
    21   13   15 1
    22   14   17 1
    23   14   24 1
    24   15   30 1
    25   16   18 1
    26   17   19 1
    27   20   24 1
    28   21   22 1
    29   21   23 1
    30   22   24 1
    31   23   31 1
    32   25   32 1
    33   28   32 2
    34   29   32 2
    35   31   32 1
    36    1   33 1
    37    5   34 1
    38    5   35 1
    39    6   36 1
    40    6   37 1
    41    7   38 1
    42    7   39 1
    43    8   40 1
    44    8   41 1
    45    9   42 1
    46    9   43 1
    47   10   44 1
    48   10   45 1
    49   11   46 1
    50   12   47 1
    51   13   48 1
    52   14   49 1
    53   15   50 1
    54   18   51 1
    55   18   52 1
    56   18   53 1
    57   19   54 1
    58   19   55 1
    59   19   56 1
    60   20   57 1
    61   20   58 1
    62   20   59 1
    63   21   60 1
    64   21   61 1
    65   22   62 1
    66   22   63 1
    67   23   64 1
    68   23   65 1
    69   24   66 1
    70   30   67 1
@<TRIPOS>MOLECULE
ENE3_32
   69    72     0     0     0
SMALL
USER_CHARGES

mmff94s_NoEstat = 110.31
@<TRIPOS>ATOM
      1 C1          0.4652   -0.9264   -0.5594 C.2       1 <0>        -0.1356
      2 C2          1.5320   -1.6147   -0.1191 C.2       1 <0>        -0.2764
      3 C3         -0.3353   -1.3965   -1.7125 C.2       1 <0>         0.4946
      4 C4          2.3906   -1.0236    0.9778 C.3       1 <0>         0.1382
      5 C5          0.1582   -2.5953   -2.4773 C.3       1 <0>         0.0610
      6 C6          0.8181   -3.5888   -1.5344 C.3       1 <0>         0.0000
      7 C7          4.3226   -3.9617    3.8933 C.3       1 <0>         0.0000
      8 C8          4.7376   -5.3022    4.5254 C.3       1 <0>         0.0000
      9 C9          2.7943   -5.3591    0.0361 C.3       1 <0>         0.0000
     10 C10         3.4476   -4.3595    2.7065 C.3       1 <0>         0.0000
     11 C11         2.2834   -3.9649    0.5073 C.3       1 <0>         0.0000
     12 C12         3.2264   -3.3349    1.5834 C.3       1 <0>         0.0000
     13 C13         4.2268   -6.4059    3.5707 C.3       1 <0>         0.0000
     14 C14         2.6480   -2.0108    2.1133 C.3       1 <0>         0.2800
     15 C15         3.1223   -6.3281    1.1913 C.3       1 <0>         0.2800
     16 C16         1.9665   -2.9741   -0.6811 C.3       1 <0>         0.1382
     17 C17         4.0841   -5.6783    2.2071 C.3       1 <0>         0.0000
     18 C18         3.1964   -2.7456   -1.5893 C.3       1 <0>         0.0000
     19 C19         5.4723   -5.4862    1.5396 C.3       1 <0>         0.0000
     20 C20         4.7191   -8.5463    4.7699 C.3       1 <0>         0.0000
     21 C21         7.5007   -8.4854    3.2162 C.3       1 <0>         0.0000
     22 C22         6.6067   -7.3250    3.6550 C.3       1 <0>         0.0000
     23 C23         8.9770   -8.1289    3.3334 C.3       1 <0>         0.2800
     24 C24         5.1007   -7.6522    3.5842 C.3       1 <0>         0.0000
     25 O1         10.7112   -7.1111    6.5468 O.3       1 <0>        -0.8167
     26 O2         -1.3320   -0.7682   -2.0634 O.2       1 <0>        -0.5700
     27 O3         11.0490   -6.1833    4.3003 O.2       1 <0>        -0.8167
     28 O4         11.6087   -8.5299    4.7494 O.2       1 <0>        -0.8167
     29 O5          1.4353   -2.2423    2.8273 O.3       1 <0>        -0.6800
     30 O6          1.9015   -6.7073    1.8273 O.3       1 <0>        -0.6800
     31 O7          9.2643   -7.8006    4.6858 O.3       1 <0>        -0.4637
     32 S1         10.7910   -7.3729    5.1105 S.o2      1 <0>         1.6337
     33 H1          0.1807    0.0276   -0.1278 H         1 <0>         0.1500
     34 H2          3.3478   -0.7111    0.5425 H         1 <0>         0.0000
     35 H3          1.9216   -0.1202    1.3879 H         1 <0>         0.0000
     36 H4         -0.6988   -3.0755   -2.9624 H         1 <0>         0.0000
     37 H5          0.8456   -2.2563   -3.2587 H         1 <0>         0.0000
     38 H6          0.0417   -3.9895   -0.8677 H         1 <0>         0.0000
     39 H7          1.1851   -4.4354   -2.1268 H         1 <0>         0.0000
     40 H8          3.7795   -3.3373    4.6102 H         1 <0>         0.0000
     41 H9          5.2073   -3.4012    3.5710 H         1 <0>         0.0000
     42 H10         5.8259   -5.3351    4.6497 H         1 <0>         0.0000
     43 H11         4.2930   -5.4220    5.5196 H         1 <0>         0.0000
     44 H12         2.0265   -5.8276   -0.5898 H         1 <0>         0.0000
     45 H13         3.6827   -5.2412   -0.5915 H         1 <0>         0.0000
     46 H14         2.4567   -4.5902    3.1297 H         1 <0>         0.0000
     47 H15         1.3248   -4.1569    1.0152 H         1 <0>         0.0000
     48 H16         4.1919   -3.0993    1.1223 H         1 <0>         0.0000
     49 H17         3.2323   -6.7077    3.9275 H         1 <0>         0.0000
     50 H18         3.3547   -1.5584    2.8186 H         1 <0>         0.0000
     51 H19         3.5654   -7.2455    0.7868 H         1 <0>         0.0000
     52 H20         3.5151   -3.6978   -1.9940 H         1 <0>         0.0000
     53 H21         3.9917   -2.3086   -0.9990 H         1 <0>         0.0000
     54 H22         2.9190   -2.0750   -2.3928 H         1 <0>         0.0000
     55 H23         5.8388   -6.4523    1.2236 H         1 <0>         0.0000
     56 H24         6.1443   -5.0477    2.2633 H         1 <0>         0.0000
     57 H25         5.3570   -4.8310    0.6882 H         1 <0>         0.0000
     58 H26         4.8859   -8.0311    5.7218 H         1 <0>         0.0000
     59 H27         5.3089   -9.4692    4.7753 H         1 <0>         0.0000
     60 H28         3.6601   -8.8211    4.7223 H         1 <0>         0.0000
     61 H29         7.3051   -9.3779    3.8214 H         1 <0>         0.0000
     62 H30         7.2770   -8.7670    2.1799 H         1 <0>         0.0000
     63 H31         6.8152   -6.4595    3.0127 H         1 <0>         0.0000
     64 H32         6.8718   -7.0277    4.6777 H         1 <0>         0.0000
     65 H33         9.2208   -7.2657    2.7060 H         1 <0>         0.0000
     66 H34         9.6080   -8.9735    3.0391 H         1 <0>         0.0000
     67 H35         4.9113   -8.2236    2.6639 H         1 <0>         0.0000
     68 H36         1.1515   -1.3824    3.1737 H         1 <0>         0.4000
     69 H37         1.3610   -7.1374    1.1477 H         1 <0>         0.4000
@<TRIPOS>BOND
     1    1    2 2
     2    1    3 1
     3    2    4 1
     4    2   16 1
     5    3    5 1
     6    3   26 2
     7    4   14 1
     8    5    6 1
     9    6   16 1
    10    7    8 1
    11    7   10 1
    12    8   13 1
    13    9   11 1
    14    9   15 1
    15   10   12 1
    16   10   17 1
    17   11   12 1
    18   11   16 1
    19   12   14 1
    20   13   17 1
    21   13   24 1
    22   14   29 1
    23   15   17 1
    24   15   30 1
    25   16   18 1
    26   17   19 1
    27   20   24 1
    28   21   22 1
    29   21   23 1
    30   22   24 1
    31   23   31 1
    32   25   32 1
    33   27   32 2
    34   28   32 2
    35   31   32 1
    36    1   33 1
    37    4   34 1
    38    4   35 1
    39    5   36 1
    40    5   37 1
    41    6   38 1
    42    6   39 1
    43    7   40 1
    44    7   41 1
    45    8   42 1
    46    8   43 1
    47    9   44 1
    48    9   45 1
    49   10   46 1
    50   11   47 1
    51   12   48 1
    52   13   49 1
    53   14   50 1
    54   15   51 1
    55   18   52 1
    56   18   53 1
    57   18   54 1
    58   19   55 1
    59   19   56 1
    60   19   57 1
    61   20   58 1
    62   20   59 1
    63   20   60 1
    64   21   61 1
    65   21   62 1
    66   22   63 1
    67   22   64 1
    68   23   65 1
    69   23   66 1
    70   24   67 1
    71   29   68 1
    72   30   69 1
@<TRIPOS>MOLECULE
16409-34-0_65
   75    78     0     0     0
SMALL
USER_CHARGES

mmff94s_NoEstat = 112.82
@<TRIPOS>ATOM
      1 C1          7.1354   -9.0476    5.0929 C.2       1 <0>         0.5690
      2 C2          9.9682  -10.5331    4.5209 C.2       1 <0>         0.6590
      3 C3          2.1630   -0.9786    1.0349 C.3       1 <0>         0.0000
      4 C4          2.3576   -2.0257    2.1272 C.3       1 <0>         0.0000
      5 C5          3.8090   -3.9889    4.0522 C.3       1 <0>         0.0000
      6 C6          4.1891   -5.3480    4.6667 C.3       1 <0>         0.0000
      7 C7          0.0063   -3.6296   -1.7291 C.3       1 <0>         0.0000
      8 C8          1.4736   -3.3404   -2.0188 C.3       1 <0>         0.0000
      9 C9          0.0072   -1.8215    0.0221 C.3       1 <0>         0.0000
     10 C10         3.1163   -5.1811   -0.1065 C.3       1 <0>         0.0000
     11 C11         1.5034   -1.5418   -0.2346 C.3       1 <0>         0.0000
     12 C12         3.1121   -3.2612    1.6185 C.3       1 <0>         0.0000
     13 C13         3.1956   -4.3460    2.6999 C.3       1 <0>         0.0000
     14 C14         2.4273   -3.8623    0.3482 C.3       1 <0>         0.0000
     15 C15         3.9368   -6.4046    3.5662 C.3       1 <0>         0.0000
     16 C16        -0.6997   -2.3854   -1.2055 C.3       1 <0>         0.2800
     17 C17         3.2922   -6.2131    1.0287 C.3       1 <0>         0.2800
     18 C18         2.2643   -2.7903   -0.7957 C.3       1 <0>         0.0000
     19 C19         4.0003   -5.5879    2.2481 C.3       1 <0>         0.0000
     20 C20         3.6455   -2.3458   -1.3436 C.3       1 <0>         0.0000
     21 C21         5.4721   -5.2684    1.8694 C.3       1 <0>         0.0000
     22 C22         4.6050   -8.5746    2.5151 C.3       1 <0>         0.0000
     23 C23         5.6799   -9.4490    5.2638 C.3       1 <0>         0.0610
     24 C24         9.1321   -9.5931    3.7075 C.3       1 <0>         0.3611
     25 C25         4.7227   -8.2766    5.0454 C.3       1 <0>         0.0000
     26 C26         4.8726   -7.6007    3.6672 C.3       1 <0>         0.0000
     27 N1          7.7464   -9.7691    4.0776 N.am      1 <0>        -0.7301
     28 O1          7.6832   -8.1929    5.7839 O.2       1 <0>        -0.5700
     29 O2          9.8956  -11.7528    4.5235 O.2       1 <0>        -0.5700
     30 O3         10.8481   -9.8307    5.2807 O.3       1 <0>        -0.6500
     31 O4         -2.0481   -2.7037   -0.8775 O.3       1 <0>        -0.6800
     32 O5          2.0291   -6.7841    1.3629 O.3       1 <0>        -0.6800
     33 H1          1.5632   -0.1507    1.4324 H         1 <0>         0.0000
     34 H2          3.1372   -0.5446    0.7797 H         1 <0>         0.0000
     35 H3          2.9112   -1.5654    2.9543 H         1 <0>         0.0000
     36 H4          1.3845   -2.3211    2.5373 H         1 <0>         0.0000
     37 H5          3.1029   -3.4489    4.6914 H         1 <0>         0.0000
     38 H6          4.6985   -3.3594    3.9371 H         1 <0>         0.0000
     39 H7          5.2358   -5.3316    4.9909 H         1 <0>         0.0000
     40 H8          3.5782   -5.5641    5.5502 H         1 <0>         0.0000
     41 H9         -0.4925   -3.9717   -2.6442 H         1 <0>         0.0000
     42 H10        -0.0957   -4.4582   -1.0181 H         1 <0>         0.0000
     43 H11         1.9490   -4.2397   -2.4248 H         1 <0>         0.0000
     44 H12         1.5134   -2.6011   -2.8313 H         1 <0>         0.0000
     45 H13        -0.1332   -2.5078    0.8653 H         1 <0>         0.0000
     46 H14        -0.4970   -0.8948    0.3263 H         1 <0>         0.0000
     47 H15         2.5075   -5.6513   -0.8866 H         1 <0>         0.0000
     48 H16         4.0922   -4.9639   -0.5503 H         1 <0>         0.0000
     49 H17         1.5431   -0.7478   -0.9946 H         1 <0>         0.0000
     50 H18         4.1274   -2.9366    1.3690 H         1 <0>         0.0000
     51 H19         2.1602   -4.6488    2.9220 H         1 <0>         0.0000
     52 H20         1.4150   -4.1514    0.6576 H         1 <0>         0.0000
     53 H21         2.9149   -6.7831    3.7082 H         1 <0>         0.0000
     54 H22        -0.7305   -1.6222   -1.9918 H         1 <0>         0.0000
     55 H23         3.8946   -7.0457    0.6468 H         1 <0>         0.0000
     56 H24         4.2324   -1.9545   -0.5245 H         1 <0>         0.0000
     57 H25         3.4904   -1.5815   -2.0922 H         1 <0>         0.0000
     58 H26         4.1364   -3.2043   -1.7802 H         1 <0>         0.0000
     59 H27         5.9562   -6.1860    1.5682 H         1 <0>         0.0000
     60 H28         5.9657   -4.8488    2.7340 H         1 <0>         0.0000
     61 H29         5.4710   -4.5584    1.0551 H         1 <0>         0.0000
     62 H30         3.5877   -8.9752    2.5527 H         1 <0>         0.0000
     63 H31         5.2902   -9.4279    2.5654 H         1 <0>         0.0000
     64 H32         4.7449   -8.0863    1.5448 H         1 <0>         0.0000
     65 H33         5.4595  -10.2492    4.5476 H         1 <0>         0.0000
     66 H34         5.5656   -9.8548    6.2750 H         1 <0>         0.0000
     67 H35         9.4277   -8.5620    3.9184 H         1 <0>         0.0000
     68 H36         9.2493   -9.8165    2.6439 H         1 <0>         0.0000
     69 H37         3.6885   -8.6196    5.1802 H         1 <0>         0.0000
     70 H38         4.9003   -7.5247    5.8259 H         1 <0>         0.0000
     71 H39         5.9064   -7.2379    3.5696 H         1 <0>         0.0000
     72 H40         7.2117  -10.4737    3.5780 H         1 <0>         0.3700
     73 H41        11.4119  -10.4199    5.8260 H         1 <0>         0.5000
     74 H42        -2.4549   -1.8858   -0.5506 H         1 <0>         0.4000
     75 H43         1.6983   -7.2114    0.5580 H         1 <0>         0.4000
@<TRIPOS>BOND
     1    1   23 1
     2    1   27 am
     3    1   28 2
     4    2   24 1
     5    2   29 2
     6    2   30 1
     7    3    4 1
     8    3   11 1
     9    4   12 1
    10    5    6 1
    11    5   13 1
    12    6   15 1
    13    7    8 1
    14    7   16 1
    15    8   18 1
    16    9   11 1
    17    9   16 1
    18   10   14 1
    19   10   17 1
    20   11   18 1
    21   12   13 1
    22   12   14 1
    23   13   19 1
    24   14   18 1
    25   15   19 1
    26   15   26 1
    27   16   31 1
    28   17   19 1
    29   17   32 1
    30   18   20 1
    31   19   21 1
    32   22   26 1
    33   23   25 1
    34   24   27 1
    35   25   26 1
    36    3   33 1
    37    3   34 1
    38    4   35 1
    39    4   36 1
    40    5   37 1
    41    5   38 1
    42    6   39 1
    43    6   40 1
    44    7   41 1
    45    7   42 1
    46    8   43 1
    47    8   44 1
    48    9   45 1
    49    9   46 1
    50   10   47 1
    51   10   48 1
    52   11   49 1
    53   12   50 1
    54   13   51 1
    55   14   52 1
    56   15   53 1
    57   16   54 1
    58   17   55 1
    59   20   56 1
    60   20   57 1
    61   20   58 1
    62   21   59 1
    63   21   60 1
    64   21   61 1
    65   22   62 1
    66   22   63 1
    67   22   64 1
    68   23   65 1
    69   23   66 1
    70   24   67 1
    71   24   68 1
    72   25   69 1
    73   25   70 1
    74   26   71 1
    75   27   72 1
    76   30   73 1
    77   31   74 1
    78   32   75 1
@<TRIPOS>MOLECULE
52205-73-9_158
   63    66     0     0     0
SMALL
USER_CHARGES

mmff94s_NoEstat = 110.98
@<TRIPOS>ATOM
      1 C1          2.3569   -6.0828    1.8053 C.ar      1 <0>        -0.1500
      2 C2          1.9007   -5.3923    0.6804 C.ar      1 <0>        -0.1500
      3 C3          3.5152   -3.6601    1.0947 C.ar      1 <0>        -0.1500
      4 C4          3.4142   -5.5862    2.5882 C.ar      1 <0>        -0.1435
      5 C5          3.9782   -4.3405    2.2347 C.ar      1 <0>        -0.1435
      6 C6          2.4826   -4.1833    0.3219 C.ar      1 <0>         0.0825
      7 C7          1.5387   -2.2113   -0.5342 C.2       1 <0>         0.7800
      8 C8          5.1139   -3.7191    3.0103 C.3       1 <0>         0.1435
      9 C9          5.3539   -4.3540    4.3767 C.3       1 <0>         0.0000
     10 C10         3.7625   -7.8665    3.7830 C.3       1 <0>         0.0000
     11 C11         7.0346   -6.2757    6.2146 C.3       1 <0>         0.0000
     12 C12         7.2757   -7.4765    7.1478 C.3       1 <0>         0.0000
     13 C13         4.2884   -8.5743    5.0465 C.3       1 <0>         0.0000
     14 C14         3.8801   -6.3196    3.8430 C.3       1 <0>         0.1435
     15 C15         5.3178   -5.8786    4.2539 C.3       1 <0>         0.0000
     16 C16         5.6914   -6.5820    5.5584 C.3       1 <0>         0.0000
     17 C17         6.1695   -8.5006    6.8266 C.3       1 <0>         0.2800
     18 C18         5.7065   -8.1164    5.4083 C.3       1 <0>         0.0000
     19 C19         6.7000   -8.6522    4.3455 C.3       1 <0>         0.0000
     20 C20        -0.0718   -0.4999   -1.3105 C.3       1 <0>         0.3001
     21 C21         0.0561   -2.6490   -2.5266 C.3       1 <0>         0.3001
     22 C22         0.1243    0.3536   -2.5521 C.3       1 <0>         0.2900
     23 C23        -1.4309   -2.9426   -2.4205 C.3       1 <0>         0.2900
     24 N1          0.5422   -1.8144   -1.4328 N.am      1 <0>        -0.6602
     25 O1          7.2246  -11.9250    8.1857 O.3       1 <0>        -1.0333
     26 O2          5.2809  -10.4658    8.9860 O.3       1 <0>        -1.0333
     27 O3          1.9566   -1.5130    0.3888 O.2       1 <0>        -0.5700
     28 O4          7.6946   -9.6306    9.2164 O.2       1 <0>        -1.0333
     29 O5          2.0416   -3.5109   -0.7752 O.3       1 <0>        -0.2325
     30 O6          6.6199   -9.8358    6.9487 O.3       1 <0>        -0.5512
     31 P1          6.7106  -10.5139    8.4549 P.3       1 <0>         1.3712
     32 Cl1         1.8528    0.6150   -2.8922 Cl        1 <0>        -0.2900
     33 Cl2        -1.8167   -3.7934   -0.9041 Cl        1 <0>        -0.2900
     34 H1          1.8596   -7.0143    2.0585 H         1 <0>         0.1500
     35 H2          1.0866   -5.8059    0.0913 H         1 <0>         0.1500
     36 H3          3.9661   -2.7113    0.8111 H         1 <0>         0.1500
     37 H4          6.0255   -3.8161    2.4067 H         1 <0>         0.0000
     38 H5          4.9256   -2.6477    3.1507 H         1 <0>         0.0000
     39 H6          6.3198   -4.0089    4.7618 H         1 <0>         0.0000
     40 H7          4.5877   -4.0153    5.0862 H         1 <0>         0.0000
     41 H8          4.2860   -8.2443    2.8964 H         1 <0>         0.0000
     42 H9          2.7135   -8.1619    3.6648 H         1 <0>         0.0000
     43 H10         7.0133   -5.3354    6.7749 H         1 <0>         0.0000
     44 H11         7.8373   -6.2013    5.4726 H         1 <0>         0.0000
     45 H12         8.2807   -7.8872    6.9997 H         1 <0>         0.0000
     46 H13         7.2108   -7.1726    8.1986 H         1 <0>         0.0000
     47 H14         3.6019   -8.3557    5.8751 H         1 <0>         0.0000
     48 H15         4.2571   -9.6606    4.9001 H         1 <0>         0.0000
     49 H16         3.1920   -5.9891    4.6365 H         1 <0>         0.0000
     50 H17         6.0291   -6.1615    3.4672 H         1 <0>         0.0000
     51 H18         4.9217   -6.3087    6.2996 H         1 <0>         0.0000
     52 H19         5.3474   -8.3713    7.5415 H         1 <0>         0.0000
     53 H20         7.6967   -8.3253    4.6076 H         1 <0>         0.0000
     54 H21         6.4186   -8.2576    3.3790 H         1 <0>         0.0000
     55 H22         6.6498   -9.7322    4.3383 H         1 <0>         0.0000
     56 H23        -1.1343   -0.6454   -1.0896 H         1 <0>         0.0000
     57 H24         0.3915   -0.0139   -0.4464 H         1 <0>         0.0000
     58 H25         0.2971   -2.1430   -3.4671 H         1 <0>         0.0000
     59 H26         0.6247   -3.5833   -2.4879 H         1 <0>         0.0000
     60 H27        -0.3439    1.3363   -2.4404 H         1 <0>         0.0000
     61 H28        -0.3078   -0.1415   -3.4266 H         1 <0>         0.0000
     62 H29        -1.7755   -3.5689   -3.2489 H         1 <0>         0.0000
     63 H30        -2.0041   -2.0109   -2.4253 H         1 <0>         0.0000
@<TRIPOS>BOND
     1    1    2 ar
     2    1    4 ar
     3    2    6 ar
     4    3    5 ar
     5    3    6 ar
     6    4    5 ar
     7    4   14 1
     8    5    8 1
     9    6   29 1
    10    7   24 am
    11    7   27 2
    12    7   29 1
    13    8    9 1
    14    9   15 1
    15   10   13 1
    16   10   14 1
    17   11   12 1
    18   11   16 1
    19   12   17 1
    20   13   18 1
    21   14   15 1
    22   15   16 1
    23   16   18 1
    24   17   18 1
    25   17   30 1
    26   18   19 1
    27   20   22 1
    28   20   24 1
    29   21   23 1
    30   21   24 1
    31   22   32 1
    32   23   33 1
    33   25   31 1
    34   26   31 1
    35   28   31 2
    36   30   31 1
    37    1   34 1
    38    2   35 1
    39    3   36 1
    40    8   37 1
    41    8   38 1
    42    9   39 1
    43    9   40 1
    44   10   41 1
    45   10   42 1
    46   11   43 1
    47   11   44 1
    48   12   45 1
    49   12   46 1
    50   13   47 1
    51   13   48 1
    52   14   49 1
    53   15   50 1
    54   16   51 1
    55   17   52 1
    56   19   53 1
    57   19   54 1
    58   19   55 1
    59   20   56 1
    60   20   57 1
    61   21   58 1
    62   21   59 1
    63   22   60 1
    64   22   61 1
    65   23   62 1
    66   23   63 1
@<TRIPOS>MOLECULE
6785-62-2_29
   57    60     0     0     0
SMALL
USER_CHARGES

mmff94s_NoEstat = 69.07
@<TRIPOS>ATOM
      1 C1          0.5559   -0.9040   -0.4896 C.2       1 <0>        -0.1356
      2 C2          1.5615   -1.6596   -0.0203 C.2       1 <0>        -0.2764
      3 C3         -0.2502   -1.3546   -1.6473 C.2       1 <0>         0.4946
      4 C4          7.3103  -11.2853    5.7749 C.2       1 <0>         0.6590
      5 C5          4.8436   -8.6673    4.3631 C.2       1 <0>         0.6590
      6 C6          2.4779   -1.1107    1.0451 C.3       1 <0>         0.1382
      7 C7          0.2278   -2.5658   -2.4047 C.3       1 <0>         0.0610
      8 C8          2.7054   -2.1017    2.1811 C.3       1 <0>         0.0000
      9 C9          0.7633   -3.6080   -1.4388 C.3       1 <0>         0.0000
     10 C10         4.4196   -4.0989    3.8842 C.3       1 <0>         0.0000
     11 C11         2.5652   -5.4545    0.1595 C.3       1 <0>         0.0000
     12 C12         4.8010   -5.4594    4.4957 C.3       1 <0>         0.0000
     13 C13         2.9547   -6.4134    1.2988 C.3       1 <0>         0.0000
     14 C14         1.8840   -3.0576   -0.5326 C.3       1 <0>         0.1382
     15 C15         3.2072   -3.4444    1.6367 C.3       1 <0>         0.0000
     16 C16         2.1616   -4.0389    0.6472 C.3       1 <0>         0.0000
     17 C17         3.4583   -4.4579    2.7544 C.3       1 <0>         0.0000
     18 C18         4.2080   -6.5328    3.5621 C.3       1 <0>         0.2800
     19 C19         4.0105   -5.7955    2.2236 C.3       1 <0>         0.0000
     20 C20         5.3577   -5.6854    1.4651 C.3       1 <0>         0.0000
     21 C21         5.9956  -10.5730    5.5740 C.3       1 <0>         0.0610
     22 C22         6.1501   -9.3805    4.6377 C.3       1 <0>         0.0610
     23 O1         -1.2255   -0.7011   -2.0100 O.2       1 <0>        -0.5700
     24 O2          7.7118  -12.1945    5.0600 O.2       1 <0>        -0.5700
     25 O3          3.7654   -8.9412    4.8716 O.2       1 <0>        -0.5700
     26 O4          8.0156  -10.7947    6.8237 O.3       1 <0>        -0.6500
     27 O5          5.0559   -7.6598    3.4533 O.3       1 <0>        -0.4300
     28 H1          0.3415    0.0829   -0.0944 H         1 <0>         0.1500
     29 H2          3.4415   -0.8670    0.5793 H         1 <0>         0.0000
     30 H3          2.0885   -0.1751    1.4645 H         1 <0>         0.0000
     31 H4         -0.6144   -2.9863   -2.9648 H         1 <0>         0.0000
     32 H5          0.9961   -2.2517   -3.1194 H         1 <0>         0.0000
     33 H6          3.4375   -1.6761    2.8771 H         1 <0>         0.0000
     34 H7          1.7740   -2.2439    2.7441 H         1 <0>         0.0000
     35 H8         -0.0662   -3.9751   -0.8195 H         1 <0>         0.0000
     36 H9          1.1321   -4.4623   -2.0178 H         1 <0>         0.0000
     37 H10         3.9530   -3.4458    4.6285 H         1 <0>         0.0000
     38 H11         5.3115   -3.5874    3.5053 H         1 <0>         0.0000
     39 H12         3.3906   -5.3745   -0.5574 H         1 <0>         0.0000
     40 H13         1.7313   -5.9135   -0.3837 H         1 <0>         0.0000
     41 H14         5.8884   -5.5481    4.5965 H         1 <0>         0.0000
     42 H15         4.3807   -5.5656    5.5021 H         1 <0>         0.0000
     43 H16         2.0499   -6.6554    1.8718 H         1 <0>         0.0000
     44 H17         3.3137   -7.3603    0.8781 H         1 <0>         0.0000
     45 H18         2.7991   -2.9730   -1.1357 H         1 <0>         0.0000
     46 H19         4.1430   -3.2511    1.0978 H         1 <0>         0.0000
     47 H20         1.2196   -4.1598    1.2050 H         1 <0>         0.0000
     48 H21         2.4835   -4.6481    3.2343 H         1 <0>         0.0000
     49 H22         3.2564   -6.8748    3.9579 H         1 <0>         0.0000
     50 H23         6.0930   -5.2488    2.1268 H         1 <0>         0.0000
     51 H24         5.2158   -5.0568    0.5969 H         1 <0>         0.0000
     52 H25         5.6673   -6.6765    1.1633 H         1 <0>         0.0000
     53 H26         5.3145  -11.3047    5.1215 H         1 <0>         0.0000
     54 H27         5.5571  -10.3131    6.5432 H         1 <0>         0.0000
     55 H28         6.8650   -8.6546    5.0408 H         1 <0>         0.0000
     56 H29         6.5205   -9.7437    3.6718 H         1 <0>         0.0000
     57 H30         8.8851  -11.2222    6.9770 H         1 <0>         0.5000
@<TRIPOS>BOND
     1    1    2 2
     2    1    3 1
     3    2    6 1
     4    2   14 1
     5    3    7 1
     6    3   23 2
     7    4   21 1
     8    4   24 2
     9    4   26 1
    10    5   22 1
    11    5   25 2
    12    5   27 1
    13    6    8 1
    14    7    9 1
    15    8   15 1
    16    9   14 1
    17   10   12 1
    18   10   17 1
    19   11   13 1
    20   11   16 1
    21   12   18 1
    22   13   19 1
    23   14   16 1
    24   15   16 1
    25   15   17 1
    26   17   19 1
    27   18   19 1
    28   18   27 1
    29   19   20 1
    30   21   22 1
    31    1   28 1
    32    6   29 1
    33    6   30 1
    34    7   31 1
    35    7   32 1
    36    8   33 1
    37    8   34 1
    38    9   35 1
    39    9   36 1
    40   10   37 1
    41   10   38 1
    42   11   39 1
    43   11   40 1
    44   12   41 1
    45   12   42 1
    46   13   43 1
    47   13   44 1
    48   14   45 1
    49   15   46 1
    50   16   47 1
    51   17   48 1
    52   18   49 1
    53   20   50 1
    54   20   51 1
    55   20   52 1
    56   21   53 1
    57   21   54 1
    58   22   55 1
    59   22   56 1
    60   26   57 1
@<TRIPOS>MOLECULE
ENE4_50
   69    72     0     0     0
SMALL
USER_CHARGES

mmff94s_NoEstat = 118.99
@<TRIPOS>ATOM
      1 C1         -0.3015   -2.6505   -1.7929 C.2       1 <0>        -0.1356
      2 C2          0.6505   -3.5127   -1.4215 C.2       1 <0>        -0.2882
      3 C3         -0.1109   -1.1985   -1.5980 C.2       1 <0>         0.4946
      4 C4          1.2454   -0.7104   -1.1523 C.3       1 <0>         0.0610
      5 C5          4.1609   -4.1390    3.9123 C.3       1 <0>         0.0000
      6 C6          4.7169   -5.4529    4.4910 C.3       1 <0>         0.0000
      7 C7          1.2948   -1.5990    1.2040 C.3       1 <0>         0.0000
      8 C8          2.7379   -5.5643    0.0199 C.3       1 <0>         0.0000
      9 C9          1.9323   -1.6843   -0.1851 C.3       1 <0>         0.0000
     10 C10         3.2947   -4.5844    2.7332 C.3       1 <0>         0.0000
     11 C11         2.1561   -4.1910    0.4811 C.3       1 <0>         0.0000
     12 C12         2.9295   -3.5378    1.6693 C.3       1 <0>         0.0000
     13 C13         4.3047   -6.5675    3.5021 C.3       1 <0>         0.0000
     14 C14         2.1015   -2.3628    2.2573 C.3       1 <0>         0.2800
     15 C15         3.1471   -6.5221    1.1525 C.3       1 <0>         0.2800
     16 C16         1.9531   -3.1592   -0.7158 C.3       1 <0>         0.1382
     17 C17         4.0540   -5.8072    2.1735 C.3       1 <0>         0.0000
     18 C18         3.0752   -3.2560   -1.7767 C.3       1 <0>         0.0000
     19 C19         5.3990   -5.4357    1.4908 C.3       1 <0>         0.0000
     20 C20         4.6577   -8.9464    2.8103 C.3       1 <0>         0.0000
     21 C21         6.8513   -9.2527    4.7997 C.3       1 <0>         0.0000
     22 C22         5.8632   -8.0862    4.8363 C.3       1 <0>         0.0000
     23 C23         7.3483   -9.6083    6.1949 C.3       1 <0>         0.2800
     24 C24         5.3070   -7.7117    3.4468 C.3       1 <0>         0.0000
     25 O1          9.2457   -7.2558    8.4831 O.3       1 <0>        -0.8167
     26 O2         -1.0235   -0.4200   -1.8671 O.2       1 <0>        -0.5700
     27 O3          9.6359   -9.6539    8.1389 O.2       1 <0>        -0.8167
     28 O4          7.5198   -8.8891    9.1181 O.2       1 <0>        -0.8167
     29 O5          1.1524   -2.7976    3.2316 O.3       1 <0>        -0.6800
     30 O6          1.9798   -7.0757    1.7558 O.3       1 <0>        -0.6800
     31 O7          8.0128   -8.4800    6.7470 O.3       1 <0>        -0.4637
     32 S1          8.6566   -8.5742    8.2540 S.o2      1 <0>         1.6337
     33 H1         -1.2397   -2.9918   -2.2166 H         1 <0>         0.1500
     34 H2          0.4860   -4.5622   -1.6611 H         1 <0>         0.1500
     35 H3          1.8714   -0.5891   -2.0523 H         1 <0>         0.0000
     36 H4          1.0960    0.2906   -0.7257 H         1 <0>         0.0000
     37 H5          3.5806   -3.5914    4.6606 H         1 <0>         0.0000
     38 H6          4.9799   -3.4894    3.5867 H         1 <0>         0.0000
     39 H7          5.8051   -5.3814    4.6026 H         1 <0>         0.0000
     40 H8          4.3011   -5.6515    5.4851 H         1 <0>         0.0000
     41 H9          1.2358   -0.5552    1.5039 H         1 <0>         0.0000
     42 H10         0.2808   -1.9898    1.1657 H         1 <0>         0.0000
     43 H11         1.9846   -6.0761   -0.6013 H         1 <0>         0.0000
     44 H12         3.6055   -5.4020   -0.6372 H         1 <0>         0.0000
     45 H13         2.9610   -1.3414   -0.0782 H         1 <0>         0.0000
     46 H14         2.3507   -4.9388    3.1775 H         1 <0>         0.0000
     47 H15         1.1348   -4.4241    0.8450 H         1 <0>         0.0000
     48 H16         3.8511   -3.0819    1.2807 H         1 <0>         0.0000
     49 H17         3.3566   -6.9888    3.8637 H         1 <0>         0.0000
     50 H18         2.7404   -1.6697    2.7588 H         1 <0>         0.0000
     51 H19         3.7010   -7.3798    0.7083 H         1 <0>         0.0000
     52 H20         4.0179   -3.0101   -1.3074 H         1 <0>         0.0000
     53 H21         2.8602   -2.5568   -2.5731 H         1 <0>         0.0000
     54 H22         3.1013   -4.2658   -2.1623 H         1 <0>         0.0000
     55 H23         5.8624   -6.3422    1.1297 H         1 <0>         0.0000
     56 H24         6.0328   -4.9539    2.2210 H         1 <0>         0.0000
     57 H25         5.1931   -4.7649    0.6695 H         1 <0>         0.0000
     58 H26         3.8083   -9.2965    3.4064 H         1 <0>         0.0000
     59 H27         5.3745   -9.7700    2.7238 H         1 <0>         0.0000
     60 H28         4.2857   -8.7140    1.8069 H         1 <0>         0.0000
     61 H29         6.3890  -10.1408    4.3540 H         1 <0>         0.0000
     62 H30         7.7087   -9.0050    4.1618 H         1 <0>         0.0000
     63 H31         6.3687   -7.2119    5.2667 H         1 <0>         0.0000
     64 H32         5.0338   -8.3328    5.5113 H         1 <0>         0.0000
     65 H33         8.0545  -10.4438    6.1563 H         1 <0>         0.0000
     66 H34         6.5141   -9.8760    6.8512 H         1 <0>         0.0000
     67 H35         6.1477   -7.4113    2.8046 H         1 <0>         0.0000
     68 H36         0.7352   -1.9983    3.5903 H         1 <0>         0.4000
     69 H37         1.5082   -7.5502    1.0548 H         1 <0>         0.4000
@<TRIPOS>BOND
     1    1    2 2
     2    1    3 1
     3    2   16 1
     4    3    4 1
     5    3   26 2
     6    4    9 1
     7    5    6 1
     8    5   10 1
     9    6   13 1
    10    7    9 1
    11    7   14 1
    12    8   11 1
    13    8   15 1
    14    9   16 1
    15   10   12 1
    16   10   17 1
    17   11   12 1
    18   11   16 1
    19   12   14 1
    20   13   17 1
    21   13   24 1
    22   14   29 1
    23   15   17 1
    24   15   30 1
    25   16   18 1
    26   17   19 1
    27   20   24 1
    28   21   22 1
    29   21   23 1
    30   22   24 1
    31   23   31 1
    32   25   32 1
    33   27   32 2
    34   28   32 2
    35   31   32 1
    36    1   33 1
    37    2   34 1
    38    4   35 1
    39    4   36 1
    40    5   37 1
    41    5   38 1
    42    6   39 1
    43    6   40 1
    44    7   41 1
    45    7   42 1
    46    8   43 1
    47    8   44 1
    48    9   45 1
    49   10   46 1
    50   11   47 1
    51   12   48 1
    52   13   49 1
    53   14   50 1
    54   15   51 1
    55   18   52 1
    56   18   53 1
    57   18   54 1
    58   19   55 1
    59   19   56 1
    60   19   57 1
    61   20   58 1
    62   20   59 1
    63   20   60 1
    64   21   61 1
    65   21   62 1
    66   22   63 1
    67   22   64 1
    68   23   65 1
    69   23   66 1
    70   24   67 1
    71   29   68 1
    72   30   69 1
@<TRIPOS>MOLECULE
ENE2_1_6_17
   65    68     0     0     0
SMALL
USER_CHARGES

mmff94s_NoEstat = 104.59
@<TRIPOS>ATOM
      1 C1         -0.1925   -2.8390   -1.9731 C.2       1 <0>        -0.1356
      2 C2          0.5310   -0.9126   -0.5080 C.2       1 <0>        -0.1356
      3 C3          0.9468   -3.4712   -1.6761 C.2       1 <0>        -0.2882
      4 C4          1.6732   -1.5528   -0.2111 C.2       1 <0>        -0.2764
      5 C5         -0.4695   -1.5006   -1.4217 C.2       1 <0>         0.5412
      6 C6          3.0667   -6.2340    1.1761 C.2       1 <0>         0.4480
      7 C7          2.6374   -0.9504    0.7847 C.3       1 <0>         0.1382
      8 C8          2.7080   -5.3363   -0.0033 C.3       1 <0>         0.0610
      9 C9          4.3397   -3.9242    3.8102 C.3       1 <0>         0.0000
     10 C10         4.6297   -5.2654    4.5026 C.3       1 <0>         0.0000
     11 C11         2.3121   -3.8990    0.4232 C.3       1 <0>         0.0000
     12 C12         3.4810   -4.3073    2.6106 C.3       1 <0>         0.0000
     13 C13         3.3309   -3.3022    1.4579 C.3       1 <0>         0.0000
     14 C14         4.1369   -6.3699    3.5388 C.3       1 <0>         0.0000
     15 C15         2.8879   -1.9096    1.9489 C.3       1 <0>         0.2800
     16 C16         2.0519   -2.9217   -0.7844 C.3       1 <0>         0.2764
     17 C17         4.0710   -5.6617    2.1663 C.3       1 <0>         0.0610
     18 C18         3.2920   -2.7599   -1.6926 C.3       1 <0>         0.0000
     19 C19         5.4499   -5.5910    1.4833 C.3       1 <0>         0.0000
     20 C20         4.4978   -8.6605    2.5985 C.3       1 <0>         0.0000
     21 C21         5.8291   -9.5379    5.1152 C.3       1 <0>         0.0000
     22 C22         4.9960   -8.2586    5.0252 C.3       1 <0>         0.0000
     23 C23         7.2932   -9.2757    4.7873 C.3       1 <0>         0.2800
     24 C24         4.9924   -7.6282    3.6178 C.3       1 <0>         0.0000
     25 O1          8.0282  -10.7754    2.4626 O.3       1 <0>        -0.8167
     26 O2         -1.4998   -0.8991   -1.7056 O.2       1 <0>        -0.5700
     27 O3          2.6254   -7.3782    1.2665 O.2       1 <0>        -0.5700
     28 O4          6.6854  -12.2639    3.8778 O.2       1 <0>        -0.8167
     29 O5          9.1329  -12.4378    3.8997 O.2       1 <0>        -0.8167
     30 O6          1.7039   -2.0155    2.7388 O.3       1 <0>        -0.6800
     31 O7          8.0151  -10.4943    4.9025 O.3       1 <0>        -0.4637
     32 S1          7.9654  -11.5861    3.6778 S.o2      1 <0>         1.6337
     33 H1         -0.9299   -3.2842   -2.6308 H         1 <0>         0.1500
     34 H2          0.2873    0.0520   -0.0752 H         1 <0>         0.1500
     35 H3          1.1065   -4.4437   -2.1366 H         1 <0>         0.1500
     36 H4          3.5822   -0.7159    0.2813 H         1 <0>         0.0000
     37 H5          2.2465   -0.0021    1.1747 H         1 <0>         0.0000
     38 H6          3.5629   -5.3347   -0.6853 H         1 <0>         0.0000
     39 H7          1.8727   -5.8161   -0.5248 H         1 <0>         0.0000
     40 H8          3.8241   -3.2330    4.4844 H         1 <0>         0.0000
     41 H9          5.2750   -3.4472    3.4963 H         1 <0>         0.0000
     42 H10         5.7014   -5.3490    4.7158 H         1 <0>         0.0000
     43 H11         4.1004   -5.3349    5.4596 H         1 <0>         0.0000
     44 H12         1.3540   -4.0063    0.9585 H         1 <0>         0.0000
     45 H13         2.4666   -4.4889    3.0047 H         1 <0>         0.0000
     46 H14         4.3023   -3.1701    0.9691 H         1 <0>         0.0000
     47 H15         3.1182   -6.6547    3.8403 H         1 <0>         0.0000
     48 H16         3.6663   -1.4850    2.5935 H         1 <0>         0.0000
     49 H17         4.1109   -2.3693   -1.1018 H         1 <0>         0.0000
     50 H18         3.0524   -2.0728   -2.4943 H         1 <0>         0.0000
     51 H19         3.5570   -3.7274   -2.1001 H         1 <0>         0.0000
     52 H20         6.1727   -5.1841    2.1818 H         1 <0>         0.0000
     53 H21         5.3825   -4.9508    0.6107 H         1 <0>         0.0000
     54 H22         5.7505   -6.5890    1.1840 H         1 <0>         0.0000
     55 H23         3.4677   -8.9633    2.8138 H         1 <0>         0.0000
     56 H24         5.1248   -9.5585    2.6082 H         1 <0>         0.0000
     57 H25         4.5169   -8.2447    1.5856 H         1 <0>         0.0000
     58 H26         5.7657   -9.9738    6.1186 H         1 <0>         0.0000
     59 H27         5.4346  -10.2976    4.4292 H         1 <0>         0.0000
     60 H28         5.3954   -7.5290    5.7418 H         1 <0>         0.0000
     61 H29         3.9657   -8.4726    5.3367 H         1 <0>         0.0000
     62 H30         7.7245   -8.5484    5.4827 H         1 <0>         0.0000
     63 H31         7.4043   -8.9011    3.7649 H         1 <0>         0.0000
     64 H32         6.0257   -7.3655    3.3502 H         1 <0>         0.0000
     65 H33         1.5081   -1.1224    3.0603 H         1 <0>         0.4000
@<TRIPOS>BOND
     1    1    3 2
     2    1    5 1
     3    2    4 2
     4    2    5 1
     5    3   16 1
     6    4    7 1
     7    4   16 1
     8    5   26 2
     9    6    8 1
    10    6   17 1
    11    6   27 2
    12    7   15 1
    13    8   11 1
    14    9   10 1
    15    9   12 1
    16   10   14 1
    17   11   13 1
    18   11   16 1
    19   12   13 1
    20   12   17 1
    21   13   15 1
    22   14   17 1
    23   14   24 1
    24   15   30 1
    25   16   18 1
    26   17   19 1
    27   20   24 1
    28   21   22 1
    29   21   23 1
    30   22   24 1
    31   23   31 1
    32   25   32 1
    33   28   32 2
    34   29   32 2
    35   31   32 1
    36    1   33 1
    37    2   34 1
    38    3   35 1
    39    7   36 1
    40    7   37 1
    41    8   38 1
    42    8   39 1
    43    9   40 1
    44    9   41 1
    45   10   42 1
    46   10   43 1
    47   11   44 1
    48   12   45 1
    49   13   46 1
    50   14   47 1
    51   15   48 1
    52   18   49 1
    53   18   50 1
    54   18   51 1
    55   19   52 1
    56   19   53 1
    57   19   54 1
    58   20   55 1
    59   20   56 1
    60   20   57 1
    61   21   58 1
    62   21   59 1
    63   22   60 1
    64   22   61 1
    65   23   62 1
    66   23   63 1
    67   24   64 1
    68   30   65 1
@<TRIPOS>MOLECULE
ZINC06036225_12
   64    67     0     0     0
SMALL
USER_CHARGES

mmff94s_NoEstat = 104.33
@<TRIPOS>ATOM
      1 C1         -0.2045   -1.4190   -1.6921 C.2       1 <0>         0.4480
      2 C2          7.7964   -8.9936    6.5739 C.2       1 <0>         0.9060
      3 C3         -0.1591   -2.8322   -2.2062 C.3       1 <0>         0.0610
      4 C4          1.1122   -0.8312   -1.2552 C.3       1 <0>         0.0610
      5 C5          0.4833   -3.7264   -1.1582 C.3       1 <0>         0.0000
      6 C6          1.3429   -1.5615    1.1582 C.3       1 <0>         0.0000
      7 C7          2.2922   -2.1950    2.1764 C.3       1 <0>         0.0000
      8 C8          4.3773   -3.7515    3.8956 C.3       1 <0>         0.0000
      9 C9          2.9216   -5.5285    0.1727 C.3       1 <0>         0.0000
     10 C10         4.9851   -4.9993    4.5630 C.3       1 <0>         0.0000
     11 C11         3.3983   -6.3644    1.3716 C.3       1 <0>         0.0000
     12 C12         1.8644   -1.7390   -0.2709 C.3       1 <0>         0.0000
     13 C13         3.1115   -3.3781    1.6200 C.3       1 <0>         0.0000
     14 C14         3.5293   -4.3147    2.7590 C.3       1 <0>         0.0000
     15 C15         2.2875   -4.1652    0.5634 C.3       1 <0>         0.0000
     16 C16         4.6128   -6.1992    3.6605 C.3       1 <0>         0.0000
     17 C17         1.8899   -3.2560   -0.6773 C.3       1 <0>         0.0000
     18 C18         4.3226   -5.5480    2.2860 C.3       1 <0>         0.0000
     19 C19         2.8947   -3.4032   -1.8456 C.3       1 <0>         0.0000
     20 C20         5.6368   -5.2026    1.5430 C.3       1 <0>         0.0000
     21 C21         5.0602   -8.6037    3.1310 C.3       1 <0>         0.0000
     22 C22         7.2550   -8.6881    5.1746 C.3       1 <0>        -0.1060
     23 C23         6.2281   -7.5599    5.0952 C.3       1 <0>         0.0000
     24 C24         5.6595   -7.3039    3.6821 C.3       1 <0>         0.0000
     25 O1          8.7197   -9.8519    6.6363 O.co2     1 <0>        -0.9000
     26 O2         -1.2375   -0.7526   -1.7135 O.2       1 <0>        -0.5700
     27 O3          7.2318   -8.3520    7.5055 O.co2     1 <0>        -0.9000
     28 H1         -1.1740   -3.1531   -2.4540 H         1 <0>         0.0000
     29 H2          0.4361   -2.8561   -3.1244 H         1 <0>         0.0000
     30 H3          1.7305   -0.6691   -2.1515 H         1 <0>         0.0000
     31 H4          0.8986    0.1613   -0.8349 H         1 <0>         0.0000
     32 H5         -0.2022   -3.8418   -0.3097 H         1 <0>         0.0000
     33 H6          0.5811   -4.7335   -1.5919 H         1 <0>         0.0000
     34 H7          0.3565   -2.0106    1.2599 H         1 <0>         0.0000
     35 H8          1.2337   -0.5028    1.3854 H         1 <0>         0.0000
     36 H9          2.9781   -1.4136    2.5447 H         1 <0>         0.0000
     37 H10         1.7220   -2.5217    3.0623 H         1 <0>         0.0000
     38 H11         3.7778   -3.1740    4.6064 H         1 <0>         0.0000
     39 H12         5.1697   -3.0952    3.5193 H         1 <0>         0.0000
     40 H13         3.7632   -5.3743   -0.5140 H         1 <0>         0.0000
     41 H14         2.1892   -6.1331   -0.3788 H         1 <0>         0.0000
     42 H15         6.0697   -4.8780    4.6610 H         1 <0>         0.0000
     43 H16         4.5804   -5.1416    5.5712 H         1 <0>         0.0000
     44 H17         2.5199   -6.7039    1.9321 H         1 <0>         0.0000
     45 H18         3.9073   -7.2647    1.0131 H         1 <0>         0.0000
     46 H19         2.9199   -1.3898   -0.2691 H         1 <0>         0.0000
     47 H20         4.0057   -2.9514    1.1647 H         1 <0>         0.0000
     48 H21         2.5922   -4.6626    3.2336 H         1 <0>         0.0000
     49 H22         1.3335   -4.4361    1.0623 H         1 <0>         0.0000
     50 H23         3.6795   -6.6312    4.0492 H         1 <0>         0.0000
     51 H24         3.8674   -3.0759   -1.5070 H         1 <0>         0.0000
     52 H25         2.5580   -2.7898   -2.6692 H         1 <0>         0.0000
     53 H26         2.9300   -4.4422   -2.1411 H         1 <0>         0.0000
     54 H27         6.2697   -4.6288    2.2062 H         1 <0>         0.0000
     55 H28         5.3955   -4.6230    0.6625 H         1 <0>         0.0000
     56 H29         6.1284   -6.1237    1.2612 H         1 <0>         0.0000
     57 H30         4.2283   -8.9491    3.7540 H         1 <0>         0.0000
     58 H31         5.8130   -9.3991    3.1113 H         1 <0>         0.0000
     59 H32         4.6862   -8.4658    2.1108 H         1 <0>         0.0000
     60 H33         6.8473   -9.6027    4.7294 H         1 <0>         0.0000
     61 H34         8.1223   -8.4111    4.5614 H         1 <0>         0.0000
     62 H35         6.6982   -6.6394    5.4655 H         1 <0>         0.0000
     63 H36         5.4020   -7.7784    5.7841 H         1 <0>         0.0000
     64 H37         6.4830   -7.0164    3.0138 H         1 <0>         0.0000
@<TRIPOS>BOND
     1    1    3 1
     2    1    4 1
     3    1   26 2
     4    2   22 1
     5    2   25 1
     6    2   27 2
     7    3    5 1
     8    4   12 1
     9    5   17 1
    10    6    7 1
    11    6   12 1
    12    7   13 1
    13    8   10 1
    14    8   14 1
    15    9   11 1
    16    9   15 1
    17   10   16 1
    18   11   18 1
    19   12   17 1
    20   13   14 1
    21   13   15 1
    22   14   18 1
    23   15   17 1
    24   16   18 1
    25   16   24 1
    26   17   19 1
    27   18   20 1
    28   21   24 1
    29   22   23 1
    30   23   24 1
    31    3   28 1
    32    3   29 1
    33    4   30 1
    34    4   31 1
    35    5   32 1
    36    5   33 1
    37    6   34 1
    38    6   35 1
    39    7   36 1
    40    7   37 1
    41    8   38 1
    42    8   39 1
    43    9   40 1
    44    9   41 1
    45   10   42 1
    46   10   43 1
    47   11   44 1
    48   11   45 1
    49   12   46 1
    50   13   47 1
    51   14   48 1
    52   15   49 1
    53   16   50 1
    54   19   51 1
    55   19   52 1
    56   19   53 1
    57   20   54 1
    58   20   55 1
    59   20   56 1
    60   21   57 1
    61   21   58 1
    62   21   59 1
    63   22   60 1
    64   22   61 1
    65   23   62 1
    66   23   63 1
    67   24   64 1
