@<TRIPOS>MOLECULE
DKPES_CSD_MMMF_1_26
   64    67     0     0     0
SMALL
USER_CHARGES

@<TRIPOS>ATOM
      1 C1          2.0121   -1.2143    1.2319 C.2       1 <0>        -0.1500
      2 C2          0.3162   -0.9298   -0.4630 C.2       1 <0>        -0.1356
      3 C3          2.9245   -1.9459    1.8863 C.2       1 <0>        -0.2882
      4 C4          1.3270   -1.6661    0.0290 C.2       1 <0>        -0.1382
      5 C5         -0.4261   -1.3440   -1.6772 C.2       1 <0>         0.4946
      6 C6          3.0520   -6.2645    1.2605 C.2       1 <0>         0.4480
      7 C7         -0.0521   -2.6371   -2.3563 C.3       1 <0>         0.0610
      8 C8          2.6249   -5.3856    0.0869 C.3       1 <0>         0.0610
      9 C9          0.6099   -3.6118   -1.3906 C.3       1 <0>         0.0000
     10 C10         4.4784   -3.8939    3.7777 C.3       1 <0>         0.0000
     11 C11         4.7891   -5.2227    4.4865 C.3       1 <0>         0.0000
     12 C12         3.3262   -3.3340    1.4645 C.3       1 <0>         0.1382
     13 C13         2.2273   -3.9675    0.5485 C.3       1 <0>         0.0000
     14 C14         3.5426   -4.2948    2.6428 C.3       1 <0>         0.0000
     15 C15         4.2322   -6.3446    3.5783 C.3       1 <0>         0.0000
     16 C16         1.7910   -2.9885   -0.5996 C.3       1 <0>         0.1382
     17 C17         4.0987   -5.6679    2.1953 C.3       1 <0>         0.0610
     18 C18         2.9581   -2.6968   -1.5724 C.3       1 <0>         0.0000
     19 C19         5.4441   -5.6231    1.4437 C.3       1 <0>         0.0000
     20 C20         4.6826   -8.4407    4.8686 C.3       1 <0>         0.0000
     21 C21         7.4569   -8.5116    3.2985 C.3       1 <0>         0.0000
     22 C22         6.5907   -7.3138    3.6905 C.3       1 <0>         0.0000
     23 C23         8.9411   -8.1821    3.3905 C.3       1 <0>         0.2800
     24 C24         5.0782   -7.6104    3.6426 C.3       1 <0>         0.0000
     25 O1         10.2091  -10.0104    5.1914 O.3       1 <0>        -0.8167
     26 O2         -1.3014   -0.6098   -2.1336 O.2       1 <0>        -0.5700
     27 O3          2.6287   -7.4120    1.3872 O.2       1 <0>        -0.5700
     28 O4          8.0937   -9.3322    6.2339 O.2       1 <0>        -0.8167
     29 O5         10.1951   -8.2793    6.9385 O.2       1 <0>        -0.8167
     30 O6          9.2450   -7.8001    4.7250 O.3       1 <0>        -0.4637
     31 S1          9.4591   -8.9553    5.8713 S.o2      1 <0>         1.6337
     32 H1          1.7714   -0.2251    1.6135 H         1 <0>         0.1500
     33 H2          0.0003    0.0002   -0.0001 H         1 <0>         0.1500
     34 H3          3.4155   -1.5047    2.7491 H         1 <0>         0.1500
     35 H4         -0.9660   -3.0949   -2.7512 H         1 <0>         0.0000
     36 H5          0.6022   -2.4064   -3.2029 H         1 <0>         0.0000
     37 H6          3.4445   -5.3628   -0.6369 H         1 <0>         0.0000
     38 H7          1.7735   -5.8804   -0.3920 H         1 <0>         0.0000
     39 H8         -0.1524   -3.9705   -0.6847 H         1 <0>         0.0000
     40 H9          0.9430   -4.4864   -1.9618 H         1 <0>         0.0000
     41 H10         4.0144   -3.1796    4.4653 H         1 <0>         0.0000
     42 H11         5.3994   -3.4390    3.3963 H         1 <0>         0.0000
     43 H12         5.8694   -5.3151    4.6450 H         1 <0>         0.0000
     44 H13         4.3104   -5.2623    5.4714 H         1 <0>         0.0000
     45 H14         4.2678   -3.2271    0.9157 H         1 <0>         0.0000
     46 H15         1.3362   -4.1106    1.1841 H         1 <0>         0.0000
     47 H16         2.5535   -4.4515    3.1073 H         1 <0>         0.0000
     48 H17         3.2283   -6.6104    3.9404 H         1 <0>         0.0000
     49 H18         3.2850   -3.6286   -2.0152 H         1 <0>         0.0000
     50 H19         3.7697   -2.2435   -1.0182 H         1 <0>         0.0000
     51 H20         2.6102   -2.0207   -2.3426 H         1 <0>         0.0000
     52 H21         6.2005   -5.2008    2.0953 H         1 <0>         0.0000
     53 H22         5.3355   -5.0069    0.5586 H         1 <0>         0.0000
     54 H23         5.7248   -6.6306    1.1587 H         1 <0>         0.0000
     55 H24         4.8689   -7.8872    5.7950 H         1 <0>         0.0000
     56 H25         5.2494   -9.3769    4.9126 H         1 <0>         0.0000
     57 H26         3.6169   -8.6907    4.8400 H         1 <0>         0.0000
     58 H27         7.2468   -9.3719    3.9440 H         1 <0>         0.0000
     59 H28         7.2199   -8.8342    2.2771 H         1 <0>         0.0000
     60 H29         6.8129   -6.4825    3.0088 H         1 <0>         0.0000
     61 H30         6.8694   -6.9772    4.6971 H         1 <0>         0.0000
     62 H31         9.1987   -7.3530    2.7237 H         1 <0>         0.0000
     63 H32         9.5521   -9.0523    3.1303 H         1 <0>         0.0000
     64 H33         4.8690   -8.2160    2.7494 H         1 <0>         0.0000
@<TRIPOS>BOND
     1    1    3 2
     2    1    4 1
     3    2    4 2
     4    2    5 1
     5    3   12 1
     6    4   16 1
     7    5    7 1
     8    5   26 2
     9    6    8 1
    10    6   17 1
    11    6   27 2
    12    7    9 1
    13    8   13 1
    14    9   16 1
    15   10   11 1
    16   10   14 1
    17   11   15 1
    18   12   13 1
    19   12   14 1
    20   13   16 1
    21   14   17 1
    22   15   17 1
    23   15   24 1
    24   16   18 1
    25   17   19 1
    26   20   24 1
    27   21   22 1
    28   21   23 1
    29   22   24 1
    30   23   30 1
    31   25   31 1
    32   28   31 2
    33   29   31 2
    34   30   31 1
    35    1   32 1
    36    2   33 1
    37    3   34 1
    38    7   35 1
    39    7   36 1
    40    8   37 1
    41    8   38 1
    42    9   39 1
    43    9   40 1
    44   10   41 1
    45   10   42 1
    46   11   43 1
    47   11   44 1
    48   12   45 1
    49   13   46 1
    50   14   47 1
    51   15   48 1
    52   18   49 1
    53   18   50 1
    54   18   51 1
    55   19   52 1
    56   19   53 1
    57   19   54 1
    58   20   55 1
    59   20   56 1
    60   20   57 1
    61   21   58 1
    62   21   59 1
    63   22   60 1
    64   22   61 1
    65   23   62 1
    66   23   63 1
    67   24   64 1

@<TRIPOS>MOLECULE
DKPES_CSD_MMMF_1_30
   64    67     0     0     0
SMALL
USER_CHARGES

@<TRIPOS>ATOM
      1 C1          2.0121   -1.2143    1.2319 C.2       1 <0>        -0.1500
      2 C2          0.3162   -0.9298   -0.4630 C.2       1 <0>        -0.1356
      3 C3          2.9245   -1.9459    1.8863 C.2       1 <0>        -0.2882
      4 C4          1.3270   -1.6661    0.0290 C.2       1 <0>        -0.1382
      5 C5         -0.4261   -1.3440   -1.6772 C.2       1 <0>         0.4946
      6 C6          3.0520   -6.2645    1.2605 C.2       1 <0>         0.4480
      7 C7         -0.0521   -2.6371   -2.3563 C.3       1 <0>         0.0610
      8 C8          2.6249   -5.3856    0.0869 C.3       1 <0>         0.0610
      9 C9          0.6099   -3.6118   -1.3906 C.3       1 <0>         0.0000
     10 C10         4.4784   -3.8939    3.7777 C.3       1 <0>         0.0000
     11 C11         4.7891   -5.2227    4.4865 C.3       1 <0>         0.0000
     12 C12         3.3262   -3.3340    1.4645 C.3       1 <0>         0.1382
     13 C13         2.2273   -3.9675    0.5485 C.3       1 <0>         0.0000
     14 C14         3.5426   -4.2948    2.6428 C.3       1 <0>         0.0000
     15 C15         4.2322   -6.3446    3.5783 C.3       1 <0>         0.0000
     16 C16         1.7910   -2.9885   -0.5996 C.3       1 <0>         0.1382
     17 C17         4.0987   -5.6679    2.1953 C.3       1 <0>         0.0610
     18 C18         2.9581   -2.6968   -1.5724 C.3       1 <0>         0.0000
     19 C19         5.4441   -5.6231    1.4437 C.3       1 <0>         0.0000
     20 C20         4.2804   -8.7995    3.0961 C.3       1 <0>         0.0000
     21 C21         6.3911   -9.2134    5.1576 C.3       1 <0>         0.0000
     22 C22         5.5625   -7.9310    5.0711 C.3       1 <0>         0.0000
     23 C23         6.8204   -9.5060    6.5895 C.3       1 <0>         0.2800
     24 C24         5.0782   -7.6104    3.6426 C.3       1 <0>         0.0000
     25 O1          9.5997   -9.5196    5.9047 O.3       1 <0>        -0.8167
     26 O2         -1.3014   -0.6098   -2.1336 O.2       1 <0>        -0.5700
     27 O3          2.6287   -7.4120    1.3872 O.2       1 <0>        -0.5700
     28 O4          8.4787  -11.0735    4.3717 O.2       1 <0>        -0.8167
     29 O5          9.6792  -11.9411    6.3281 O.2       1 <0>        -0.8167
     30 O6          7.5708  -10.7125    6.6066 O.3       1 <0>        -0.4637
     31 S1          8.9548  -10.8202    5.7307 S.o2      1 <0>         1.6337
     32 H1          1.7714   -0.2251    1.6135 H         1 <0>         0.1500
     33 H2          0.0003    0.0002   -0.0001 H         1 <0>         0.1500
     34 H3          3.4155   -1.5047    2.7491 H         1 <0>         0.1500
     35 H4         -0.9660   -3.0949   -2.7512 H         1 <0>         0.0000
     36 H5          0.6022   -2.4064   -3.2029 H         1 <0>         0.0000
     37 H6          3.4445   -5.3628   -0.6369 H         1 <0>         0.0000
     38 H7          1.7735   -5.8804   -0.3920 H         1 <0>         0.0000
     39 H8         -0.1524   -3.9705   -0.6847 H         1 <0>         0.0000
     40 H9          0.9430   -4.4864   -1.9618 H         1 <0>         0.0000
     41 H10         4.0144   -3.1796    4.4653 H         1 <0>         0.0000
     42 H11         5.3994   -3.4390    3.3963 H         1 <0>         0.0000
     43 H12         5.8694   -5.3151    4.6450 H         1 <0>         0.0000
     44 H13         4.3104   -5.2623    5.4714 H         1 <0>         0.0000
     45 H14         4.2678   -3.2271    0.9157 H         1 <0>         0.0000
     46 H15         1.3362   -4.1106    1.1841 H         1 <0>         0.0000
     47 H16         2.5535   -4.4515    3.1073 H         1 <0>         0.0000
     48 H17         3.2283   -6.6104    3.9404 H         1 <0>         0.0000
     49 H18         3.2850   -3.6286   -2.0152 H         1 <0>         0.0000
     50 H19         3.7697   -2.2435   -1.0182 H         1 <0>         0.0000
     51 H20         2.6102   -2.0207   -2.3426 H         1 <0>         0.0000
     52 H21         6.2005   -5.2008    2.0953 H         1 <0>         0.0000
     53 H22         5.3355   -5.0069    0.5586 H         1 <0>         0.0000
     54 H23         5.7248   -6.6306    1.1587 H         1 <0>         0.0000
     55 H24         3.3864   -8.9844    3.7009 H         1 <0>         0.0000
     56 H25         4.8837   -9.7137    3.0936 H         1 <0>         0.0000
     57 H26         3.9524   -8.6071    2.0692 H         1 <0>         0.0000
     58 H27         5.8230  -10.0703    4.7785 H         1 <0>         0.0000
     59 H28         7.2813   -9.1345    4.5214 H         1 <0>         0.0000
     60 H29         6.1718   -7.0944    5.4372 H         1 <0>         0.0000
     61 H30         4.6997   -8.0091    5.7448 H         1 <0>         0.0000
     62 H31         5.9490   -9.6285    7.2406 H         1 <0>         0.0000
     63 H32         7.4487   -8.7002    6.9821 H         1 <0>         0.0000
     64 H33         5.9579   -7.4756    2.9974 H         1 <0>         0.0000
@<TRIPOS>BOND
     1    1    3 2
     2    1    4 1
     3    2    4 2
     4    2    5 1
     5    3   12 1
     6    4   16 1
     7    5    7 1
     8    5   26 2
     9    6    8 1
    10    6   17 1
    11    6   27 2
    12    7    9 1
    13    8   13 1
    14    9   16 1
    15   10   11 1
    16   10   14 1
    17   11   15 1
    18   12   13 1
    19   12   14 1
    20   13   16 1
    21   14   17 1
    22   15   17 1
    23   15   24 1
    24   16   18 1
    25   17   19 1
    26   20   24 1
    27   21   22 1
    28   21   23 1
    29   22   24 1
    30   23   30 1
    31   25   31 1
    32   28   31 2
    33   29   31 2
    34   30   31 1
    35    1   32 1
    36    2   33 1
    37    3   34 1
    38    7   35 1
    39    7   36 1
    40    8   37 1
    41    8   38 1
    42    9   39 1
    43    9   40 1
    44   10   41 1
    45   10   42 1
    46   11   43 1
    47   11   44 1
    48   12   45 1
    49   13   46 1
    50   14   47 1
    51   15   48 1
    52   18   49 1
    53   18   50 1
    54   18   51 1
    55   19   52 1
    56   19   53 1
    57   19   54 1
    58   20   55 1
    59   20   56 1
    60   20   57 1
    61   21   58 1
    62   21   59 1
    63   22   60 1
    64   22   61 1
    65   23   62 1
    66   23   63 1
    67   24   64 1

@<TRIPOS>MOLECULE
DKPES_CSD_MMMF_1_3
   64    67     0     0     0
SMALL
USER_CHARGES

@<TRIPOS>ATOM
      1 C1          2.0121   -1.2143    1.2319 C.2       1 <0>        -0.1500
      2 C2          0.3162   -0.9298   -0.4630 C.2       1 <0>        -0.1356
      3 C3          2.9245   -1.9459    1.8863 C.2       1 <0>        -0.2882
      4 C4          1.3270   -1.6661    0.0290 C.2       1 <0>        -0.1382
      5 C5         -0.4261   -1.3440   -1.6772 C.2       1 <0>         0.4946
      6 C6          3.0520   -6.2645    1.2605 C.2       1 <0>         0.4480
      7 C7         -0.0521   -2.6371   -2.3563 C.3       1 <0>         0.0610
      8 C8          2.6249   -5.3856    0.0869 C.3       1 <0>         0.0610
      9 C9          0.6099   -3.6118   -1.3906 C.3       1 <0>         0.0000
     10 C10         4.4784   -3.8939    3.7777 C.3       1 <0>         0.0000
     11 C11         4.7891   -5.2227    4.4865 C.3       1 <0>         0.0000
     12 C12         3.3262   -3.3340    1.4645 C.3       1 <0>         0.1382
     13 C13         2.2273   -3.9675    0.5485 C.3       1 <0>         0.0000
     14 C14         3.5426   -4.2948    2.6428 C.3       1 <0>         0.0000
     15 C15         4.2322   -6.3446    3.5783 C.3       1 <0>         0.0000
     16 C16         1.7910   -2.9885   -0.5996 C.3       1 <0>         0.1382
     17 C17         4.0987   -5.6679    2.1953 C.3       1 <0>         0.0610
     18 C18         2.9581   -2.6968   -1.5724 C.3       1 <0>         0.0000
     19 C19         5.4441   -5.6231    1.4437 C.3       1 <0>         0.0000
     20 C20         4.5183   -8.6617    2.6779 C.3       1 <0>         0.0000
     21 C21         3.7835   -8.5683    5.6413 C.3       1 <0>         0.0000
     22 C22         5.1520   -8.2058    5.0632 C.3       1 <0>         0.0000
     23 C23         3.9029   -9.1223    7.0551 C.3       1 <0>         0.2800
     24 C24         5.0782   -7.6104    3.6426 C.3       1 <0>         0.0000
     25 O1          5.8271  -12.2483    8.0012 O.3       1 <0>        -0.8167
     26 O2         -1.3014   -0.6098   -2.1336 O.2       1 <0>        -0.5700
     27 O3          2.6287   -7.4120    1.3872 O.2       1 <0>        -0.5700
     28 O4          3.6636  -11.4944    8.8799 O.2       1 <0>        -0.8167
     29 O5          5.6764  -10.1457    9.2685 O.2       1 <0>        -0.8167
     30 O6          4.6973  -10.3001    7.0213 O.3       1 <0>        -0.4637
     31 S1          4.9969  -11.1174    8.4129 S.o2      1 <0>         1.6337
     32 H1          1.7714   -0.2251    1.6135 H         1 <0>         0.1500
     33 H2          0.0003    0.0002   -0.0001 H         1 <0>         0.1500
     34 H3          3.4155   -1.5047    2.7491 H         1 <0>         0.1500
     35 H4         -0.9660   -3.0949   -2.7512 H         1 <0>         0.0000
     36 H5          0.6022   -2.4064   -3.2029 H         1 <0>         0.0000
     37 H6          3.4445   -5.3628   -0.6369 H         1 <0>         0.0000
     38 H7          1.7735   -5.8804   -0.3920 H         1 <0>         0.0000
     39 H8         -0.1524   -3.9705   -0.6847 H         1 <0>         0.0000
     40 H9          0.9430   -4.4864   -1.9618 H         1 <0>         0.0000
     41 H10         4.0144   -3.1796    4.4653 H         1 <0>         0.0000
     42 H11         5.3994   -3.4390    3.3963 H         1 <0>         0.0000
     43 H12         5.8694   -5.3151    4.6450 H         1 <0>         0.0000
     44 H13         4.3104   -5.2623    5.4714 H         1 <0>         0.0000
     45 H14         4.2678   -3.2271    0.9157 H         1 <0>         0.0000
     46 H15         1.3362   -4.1106    1.1841 H         1 <0>         0.0000
     47 H16         2.5535   -4.4515    3.1073 H         1 <0>         0.0000
     48 H17         3.2283   -6.6104    3.9404 H         1 <0>         0.0000
     49 H18         3.2850   -3.6286   -2.0152 H         1 <0>         0.0000
     50 H19         3.7697   -2.2435   -1.0182 H         1 <0>         0.0000
     51 H20         2.6102   -2.0207   -2.3426 H         1 <0>         0.0000
     52 H21         6.2005   -5.2008    2.0953 H         1 <0>         0.0000
     53 H22         5.3355   -5.0069    0.5586 H         1 <0>         0.0000
     54 H23         5.7248   -6.6306    1.1587 H         1 <0>         0.0000
     55 H24         3.4984   -8.9472    2.9564 H         1 <0>         0.0000
     56 H25         5.1358   -9.5663    2.6762 H         1 <0>         0.0000
     57 H26         4.4862   -8.2713    1.6553 H         1 <0>         0.0000
     58 H27         3.1248   -7.6926    5.6610 H         1 <0>         0.0000
     59 H28         3.2849   -9.3082    5.0030 H         1 <0>         0.0000
     60 H29         5.7732   -9.1106    5.0388 H         1 <0>         0.0000
     61 H30         5.6548   -7.4981    5.7346 H         1 <0>         0.0000
     62 H31         2.9179   -9.3781    7.4584 H         1 <0>         0.0000
     63 H32         4.3835   -8.3978    7.7201 H         1 <0>         0.0000
     64 H33         6.0978   -7.3661    3.3127 H         1 <0>         0.0000
@<TRIPOS>BOND
     1    1    3 2
     2    1    4 1
     3    2    4 2
     4    2    5 1
     5    3   12 1
     6    4   16 1
     7    5    7 1
     8    5   26 2
     9    6    8 1
    10    6   17 1
    11    6   27 2
    12    7    9 1
    13    8   13 1
    14    9   16 1
    15   10   11 1
    16   10   14 1
    17   11   15 1
    18   12   13 1
    19   12   14 1
    20   13   16 1
    21   14   17 1
    22   15   17 1
    23   15   24 1
    24   16   18 1
    25   17   19 1
    26   20   24 1
    27   21   22 1
    28   21   23 1
    29   22   24 1
    30   23   30 1
    31   25   31 1
    32   28   31 2
    33   29   31 2
    34   30   31 1
    35    1   32 1
    36    2   33 1
    37    3   34 1
    38    7   35 1
    39    7   36 1
    40    8   37 1
    41    8   38 1
    42    9   39 1
    43    9   40 1
    44   10   41 1
    45   10   42 1
    46   11   43 1
    47   11   44 1
    48   12   45 1
    49   13   46 1
    50   14   47 1
    51   15   48 1
    52   18   49 1
    53   18   50 1
    54   18   51 1
    55   19   52 1
    56   19   53 1
    57   19   54 1
    58   20   55 1
    59   20   56 1
    60   20   57 1
    61   21   58 1
    62   21   59 1
    63   22   60 1
    64   22   61 1
    65   23   62 1
    66   23   63 1
    67   24   64 1

@<TRIPOS>MOLECULE
DKPES_CSD_MMMF_1_6
   64    67     0     0     0
SMALL
USER_CHARGES

@<TRIPOS>ATOM
      1 C1          2.0121   -1.2143    1.2319 C.2       1 <0>        -0.1500
      2 C2          0.3162   -0.9298   -0.4630 C.2       1 <0>        -0.1356
      3 C3          2.9245   -1.9459    1.8863 C.2       1 <0>        -0.2882
      4 C4          1.3270   -1.6661    0.0290 C.2       1 <0>        -0.1382
      5 C5         -0.4261   -1.3440   -1.6772 C.2       1 <0>         0.4946
      6 C6          3.0520   -6.2645    1.2605 C.2       1 <0>         0.4480
      7 C7         -0.0521   -2.6371   -2.3563 C.3       1 <0>         0.0610
      8 C8          2.6249   -5.3856    0.0869 C.3       1 <0>         0.0610
      9 C9          0.6099   -3.6118   -1.3906 C.3       1 <0>         0.0000
     10 C10         4.4784   -3.8939    3.7777 C.3       1 <0>         0.0000
     11 C11         4.7891   -5.2227    4.4865 C.3       1 <0>         0.0000
     12 C12         3.3262   -3.3340    1.4645 C.3       1 <0>         0.1382
     13 C13         2.2273   -3.9675    0.5485 C.3       1 <0>         0.0000
     14 C14         3.5426   -4.2948    2.6428 C.3       1 <0>         0.0000
     15 C15         4.2322   -6.3446    3.5783 C.3       1 <0>         0.0000
     16 C16         1.7910   -2.9885   -0.5996 C.3       1 <0>         0.1382
     17 C17         4.0987   -5.6679    2.1953 C.3       1 <0>         0.0610
     18 C18         2.9581   -2.6968   -1.5724 C.3       1 <0>         0.0000
     19 C19         5.4441   -5.6231    1.4437 C.3       1 <0>         0.0000
     20 C20         4.5183   -8.6617    2.6779 C.3       1 <0>         0.0000
     21 C21         6.3229   -9.1702    5.2571 C.3       1 <0>         0.0000
     22 C22         5.1520   -8.2058    5.0632 C.3       1 <0>         0.0000
     23 C23         6.3373   -9.7563    6.6629 C.3       1 <0>         0.2800
     24 C24         5.0782   -7.6104    3.6426 C.3       1 <0>         0.0000
     25 O1          8.8594   -9.1998    7.8970 O.3       1 <0>        -0.8167
     26 O2         -1.3014   -0.6098   -2.1336 O.2       1 <0>        -0.5700
     27 O3          2.6287   -7.4120    1.3872 O.2       1 <0>        -0.5700
     28 O4          7.7987   -7.4011    9.1858 O.2       1 <0>        -0.8167
     29 O5          8.1682   -7.1225    6.7760 O.2       1 <0>        -0.8167
     30 O6          6.4736   -8.6975    7.6007 O.3       1 <0>        -0.4637
     31 S1          7.9552   -8.0509    7.8854 S.o2      1 <0>         1.6337
     32 H1          1.7714   -0.2251    1.6135 H         1 <0>         0.1500
     33 H2          0.0003    0.0002   -0.0001 H         1 <0>         0.1500
     34 H3          3.4155   -1.5047    2.7491 H         1 <0>         0.1500
     35 H4         -0.9660   -3.0949   -2.7512 H         1 <0>         0.0000
     36 H5          0.6022   -2.4064   -3.2029 H         1 <0>         0.0000
     37 H6          3.4445   -5.3628   -0.6369 H         1 <0>         0.0000
     38 H7          1.7735   -5.8804   -0.3920 H         1 <0>         0.0000
     39 H8         -0.1524   -3.9705   -0.6847 H         1 <0>         0.0000
     40 H9          0.9430   -4.4864   -1.9618 H         1 <0>         0.0000
     41 H10         4.0144   -3.1796    4.4653 H         1 <0>         0.0000
     42 H11         5.3994   -3.4390    3.3963 H         1 <0>         0.0000
     43 H12         5.8694   -5.3151    4.6450 H         1 <0>         0.0000
     44 H13         4.3104   -5.2623    5.4714 H         1 <0>         0.0000
     45 H14         4.2678   -3.2271    0.9157 H         1 <0>         0.0000
     46 H15         1.3362   -4.1106    1.1841 H         1 <0>         0.0000
     47 H16         2.5535   -4.4515    3.1073 H         1 <0>         0.0000
     48 H17         3.2283   -6.6104    3.9404 H         1 <0>         0.0000
     49 H18         3.2850   -3.6286   -2.0152 H         1 <0>         0.0000
     50 H19         3.7697   -2.2435   -1.0182 H         1 <0>         0.0000
     51 H20         2.6102   -2.0207   -2.3426 H         1 <0>         0.0000
     52 H21         6.2005   -5.2008    2.0953 H         1 <0>         0.0000
     53 H22         5.3355   -5.0069    0.5586 H         1 <0>         0.0000
     54 H23         5.7248   -6.6306    1.1587 H         1 <0>         0.0000
     55 H24         3.4984   -8.9472    2.9564 H         1 <0>         0.0000
     56 H25         5.1358   -9.5663    2.6762 H         1 <0>         0.0000
     57 H26         4.4862   -8.2713    1.6553 H         1 <0>         0.0000
     58 H27         6.2743   -9.9919    4.5337 H         1 <0>         0.0000
     59 H28         7.2737   -8.6565    5.0689 H         1 <0>         0.0000
     60 H29         5.2482   -7.3872    5.7883 H         1 <0>         0.0000
     61 H30         4.2124   -8.7226    5.2963 H         1 <0>         0.0000
     62 H31         7.1790  -10.4446    6.7899 H         1 <0>         0.0000
     63 H32         5.4051  -10.2899    6.8740 H         1 <0>         0.0000
     64 H33         6.0978   -7.3661    3.3127 H         1 <0>         0.0000
@<TRIPOS>BOND
     1    1    3 2
     2    1    4 1
     3    2    4 2
     4    2    5 1
     5    3   12 1
     6    4   16 1
     7    5    7 1
     8    5   26 2
     9    6    8 1
    10    6   17 1
    11    6   27 2
    12    7    9 1
    13    8   13 1
    14    9   16 1
    15   10   11 1
    16   10   14 1
    17   11   15 1
    18   12   13 1
    19   12   14 1
    20   13   16 1
    21   14   17 1
    22   15   17 1
    23   15   24 1
    24   16   18 1
    25   17   19 1
    26   20   24 1
    27   21   22 1
    28   21   23 1
    29   22   24 1
    30   23   30 1
    31   25   31 1
    32   28   31 2
    33   29   31 2
    34   30   31 1
    35    1   32 1
    36    2   33 1
    37    3   34 1
    38    7   35 1
    39    7   36 1
    40    8   37 1
    41    8   38 1
    42    9   39 1
    43    9   40 1
    44   10   41 1
    45   10   42 1
    46   11   43 1
    47   11   44 1
    48   12   45 1
    49   13   46 1
    50   14   47 1
    51   15   48 1
    52   18   49 1
    53   18   50 1
    54   18   51 1
    55   19   52 1
    56   19   53 1
    57   19   54 1
    58   20   55 1
    59   20   56 1
    60   20   57 1
    61   21   58 1
    62   21   59 1
    63   22   60 1
    64   22   61 1
    65   23   62 1
    66   23   63 1
    67   24   64 1

@<TRIPOS>MOLECULE
DKPES_CSD_MMMF_1_18
   64    67     0     0     0
SMALL
USER_CHARGES

@<TRIPOS>ATOM
      1 C1          2.0121   -1.2143    1.2319 C.2       1 <0>        -0.1500
      2 C2          0.3162   -0.9298   -0.4630 C.2       1 <0>        -0.1356
      3 C3          2.9245   -1.9459    1.8863 C.2       1 <0>        -0.2882
      4 C4          1.3270   -1.6661    0.0290 C.2       1 <0>        -0.1382
      5 C5         -0.4261   -1.3440   -1.6772 C.2       1 <0>         0.4946
      6 C6          3.0520   -6.2645    1.2605 C.2       1 <0>         0.4480
      7 C7         -0.0521   -2.6371   -2.3563 C.3       1 <0>         0.0610
      8 C8          2.6249   -5.3856    0.0869 C.3       1 <0>         0.0610
      9 C9          0.6099   -3.6118   -1.3906 C.3       1 <0>         0.0000
     10 C10         4.4784   -3.8939    3.7777 C.3       1 <0>         0.0000
     11 C11         4.7891   -5.2227    4.4865 C.3       1 <0>         0.0000
     12 C12         3.3262   -3.3340    1.4645 C.3       1 <0>         0.1382
     13 C13         2.2273   -3.9675    0.5485 C.3       1 <0>         0.0000
     14 C14         3.5426   -4.2948    2.6428 C.3       1 <0>         0.0000
     15 C15         4.2322   -6.3446    3.5783 C.3       1 <0>         0.0000
     16 C16         1.7910   -2.9885   -0.5996 C.3       1 <0>         0.1382
     17 C17         4.0987   -5.6679    2.1953 C.3       1 <0>         0.0610
     18 C18         2.9581   -2.6968   -1.5724 C.3       1 <0>         0.0000
     19 C19         5.4441   -5.6231    1.4437 C.3       1 <0>         0.0000
     20 C20         4.5183   -8.6617    2.6779 C.3       1 <0>         0.0000
     21 C21         5.9758   -9.4919    5.1403 C.3       1 <0>         0.0000
     22 C22         5.1520   -8.2058    5.0632 C.3       1 <0>         0.0000
     23 C23         7.4225   -9.2547    4.7271 C.3       1 <0>         0.2800
     24 C24         5.0782   -7.6104    3.6426 C.3       1 <0>         0.0000
     25 O1          9.1591  -10.0217    6.8694 O.3       1 <0>        -0.8167
     26 O2         -1.3014   -0.6098   -2.1336 O.2       1 <0>        -0.5700
     27 O3          2.6287   -7.4120    1.3872 O.2       1 <0>        -0.5700
     28 O4          7.2927   -8.7830    7.8713 O.2       1 <0>        -0.8167
     29 O5          9.4353   -7.6542    7.4762 O.2       1 <0>        -0.8167
     30 O6          7.9926   -8.2799    5.5896 O.3       1 <0>        -0.4637
     31 S1          8.5203   -8.7233    7.0793 S.o2      1 <0>         1.6337
     32 H1          1.7714   -0.2251    1.6135 H         1 <0>         0.1500
     33 H2          0.0003    0.0002   -0.0001 H         1 <0>         0.1500
     34 H3          3.4155   -1.5047    2.7491 H         1 <0>         0.1500
     35 H4         -0.9660   -3.0949   -2.7512 H         1 <0>         0.0000
     36 H5          0.6022   -2.4064   -3.2029 H         1 <0>         0.0000
     37 H6          3.4445   -5.3628   -0.6369 H         1 <0>         0.0000
     38 H7          1.7735   -5.8804   -0.3920 H         1 <0>         0.0000
     39 H8         -0.1524   -3.9705   -0.6847 H         1 <0>         0.0000
     40 H9          0.9430   -4.4864   -1.9618 H         1 <0>         0.0000
     41 H10         4.0144   -3.1796    4.4653 H         1 <0>         0.0000
     42 H11         5.3994   -3.4390    3.3963 H         1 <0>         0.0000
     43 H12         5.8694   -5.3151    4.6450 H         1 <0>         0.0000
     44 H13         4.3104   -5.2623    5.4714 H         1 <0>         0.0000
     45 H14         4.2678   -3.2271    0.9157 H         1 <0>         0.0000
     46 H15         1.3362   -4.1106    1.1841 H         1 <0>         0.0000
     47 H16         2.5535   -4.4515    3.1073 H         1 <0>         0.0000
     48 H17         3.2283   -6.6104    3.9404 H         1 <0>         0.0000
     49 H18         3.2850   -3.6286   -2.0152 H         1 <0>         0.0000
     50 H19         3.7697   -2.2435   -1.0182 H         1 <0>         0.0000
     51 H20         2.6102   -2.0207   -2.3426 H         1 <0>         0.0000
     52 H21         6.2005   -5.2008    2.0953 H         1 <0>         0.0000
     53 H22         5.3355   -5.0069    0.5586 H         1 <0>         0.0000
     54 H23         5.7248   -6.6306    1.1587 H         1 <0>         0.0000
     55 H24         3.4984   -8.9472    2.9564 H         1 <0>         0.0000
     56 H25         5.1358   -9.5663    2.6762 H         1 <0>         0.0000
     57 H26         4.4862   -8.2713    1.6553 H         1 <0>         0.0000
     58 H27         5.9628   -9.9021    6.1564 H         1 <0>         0.0000
     59 H28         5.5368  -10.2638    4.4961 H         1 <0>         0.0000
     60 H29         5.5971   -7.4633    5.7383 H         1 <0>         0.0000
     61 H30         4.1381   -8.4002    5.4353 H         1 <0>         0.0000
     62 H31         7.4787   -8.8849    3.6983 H         1 <0>         0.0000
     63 H32         8.0085  -10.1757    4.8078 H         1 <0>         0.0000
     64 H33         6.0978   -7.3661    3.3127 H         1 <0>         0.0000
@<TRIPOS>BOND
     1    1    3 2
     2    1    4 1
     3    2    4 2
     4    2    5 1
     5    3   12 1
     6    4   16 1
     7    5    7 1
     8    5   26 2
     9    6    8 1
    10    6   17 1
    11    6   27 2
    12    7    9 1
    13    8   13 1
    14    9   16 1
    15   10   11 1
    16   10   14 1
    17   11   15 1
    18   12   13 1
    19   12   14 1
    20   13   16 1
    21   14   17 1
    22   15   17 1
    23   15   24 1
    24   16   18 1
    25   17   19 1
    26   20   24 1
    27   21   22 1
    28   21   23 1
    29   22   24 1
    30   23   30 1
    31   25   31 1
    32   28   31 2
    33   29   31 2
    34   30   31 1
    35    1   32 1
    36    2   33 1
    37    3   34 1
    38    7   35 1
    39    7   36 1
    40    8   37 1
    41    8   38 1
    42    9   39 1
    43    9   40 1
    44   10   41 1
    45   10   42 1
    46   11   43 1
    47   11   44 1
    48   12   45 1
    49   13   46 1
    50   14   47 1
    51   15   48 1
    52   18   49 1
    53   18   50 1
    54   18   51 1
    55   19   52 1
    56   19   53 1
    57   19   54 1
    58   20   55 1
    59   20   56 1
    60   20   57 1
    61   21   58 1
    62   21   59 1
    63   22   60 1
    64   22   61 1
    65   23   62 1
    66   23   63 1
    67   24   64 1

@<TRIPOS>MOLECULE
DKPES_CSD_MMMF_1_18
   64    67     0     0     0
SMALL
USER_CHARGES

@<TRIPOS>ATOM
      1 C1          2.0121   -1.2143    1.2319 C.2       1 <0>        -0.1500
      2 C2          0.3162   -0.9298   -0.4630 C.2       1 <0>        -0.1356
      3 C3          2.9245   -1.9459    1.8863 C.2       1 <0>        -0.2882
      4 C4          1.3270   -1.6661    0.0290 C.2       1 <0>        -0.1382
      5 C5         -0.4261   -1.3440   -1.6772 C.2       1 <0>         0.4946
      6 C6          3.0520   -6.2645    1.2605 C.2       1 <0>         0.4480
      7 C7         -0.0521   -2.6371   -2.3563 C.3       1 <0>         0.0610
      8 C8          2.6249   -5.3856    0.0869 C.3       1 <0>         0.0610
      9 C9          0.6099   -3.6118   -1.3906 C.3       1 <0>         0.0000
     10 C10         4.4784   -3.8939    3.7777 C.3       1 <0>         0.0000
     11 C11         4.7891   -5.2227    4.4865 C.3       1 <0>         0.0000
     12 C12         3.3262   -3.3340    1.4645 C.3       1 <0>         0.1382
     13 C13         2.2273   -3.9675    0.5485 C.3       1 <0>         0.0000
     14 C14         3.5426   -4.2948    2.6428 C.3       1 <0>         0.0000
     15 C15         4.2322   -6.3446    3.5783 C.3       1 <0>         0.0000
     16 C16         1.7910   -2.9885   -0.5996 C.3       1 <0>         0.1382
     17 C17         4.0987   -5.6679    2.1953 C.3       1 <0>         0.0610
     18 C18         2.9581   -2.6968   -1.5724 C.3       1 <0>         0.0000
     19 C19         5.4441   -5.6231    1.4437 C.3       1 <0>         0.0000
     20 C20         4.5183   -8.6617    2.6779 C.3       1 <0>         0.0000
     21 C21         5.9758   -9.4919    5.1403 C.3       1 <0>         0.0000
     22 C22         5.1520   -8.2058    5.0632 C.3       1 <0>         0.0000
     23 C23         7.4225   -9.2547    4.7271 C.3       1 <0>         0.2800
     24 C24         5.0782   -7.6104    3.6426 C.3       1 <0>         0.0000
     25 O1          9.1591  -10.0217    6.8694 O.3       1 <0>        -0.8167
     26 O2         -1.3014   -0.6098   -2.1336 O.2       1 <0>        -0.5700
     27 O3          2.6287   -7.4120    1.3872 O.2       1 <0>        -0.5700
     28 O4          7.2927   -8.7830    7.8713 O.2       1 <0>        -0.8167
     29 O5          9.4353   -7.6542    7.4762 O.2       1 <0>        -0.8167
     30 O6          7.9926   -8.2799    5.5896 O.3       1 <0>        -0.4637
     31 S1          8.5203   -8.7233    7.0793 S.o2      1 <0>         1.6337
     32 H1          1.7714   -0.2251    1.6135 H         1 <0>         0.1500
     33 H2          0.0003    0.0002   -0.0001 H         1 <0>         0.1500
     34 H3          3.4155   -1.5047    2.7491 H         1 <0>         0.1500
     35 H4         -0.9660   -3.0949   -2.7512 H         1 <0>         0.0000
     36 H5          0.6022   -2.4064   -3.2029 H         1 <0>         0.0000
     37 H6          3.4445   -5.3628   -0.6369 H         1 <0>         0.0000
     38 H7          1.7735   -5.8804   -0.3920 H         1 <0>         0.0000
     39 H8         -0.1524   -3.9705   -0.6847 H         1 <0>         0.0000
     40 H9          0.9430   -4.4864   -1.9618 H         1 <0>         0.0000
     41 H10         4.0144   -3.1796    4.4653 H         1 <0>         0.0000
     42 H11         5.3994   -3.4390    3.3963 H         1 <0>         0.0000
     43 H12         5.8694   -5.3151    4.6450 H         1 <0>         0.0000
     44 H13         4.3104   -5.2623    5.4714 H         1 <0>         0.0000
     45 H14         4.2678   -3.2271    0.9157 H         1 <0>         0.0000
     46 H15         1.3362   -4.1106    1.1841 H         1 <0>         0.0000
     47 H16         2.5535   -4.4515    3.1073 H         1 <0>         0.0000
     48 H17         3.2283   -6.6104    3.9404 H         1 <0>         0.0000
     49 H18         3.2850   -3.6286   -2.0152 H         1 <0>         0.0000
     50 H19         3.7697   -2.2435   -1.0182 H         1 <0>         0.0000
     51 H20         2.6102   -2.0207   -2.3426 H         1 <0>         0.0000
     52 H21         6.2005   -5.2008    2.0953 H         1 <0>         0.0000
     53 H22         5.3355   -5.0069    0.5586 H         1 <0>         0.0000
     54 H23         5.7248   -6.6306    1.1587 H         1 <0>         0.0000
     55 H24         3.4984   -8.9472    2.9564 H         1 <0>         0.0000
     56 H25         5.1358   -9.5663    2.6762 H         1 <0>         0.0000
     57 H26         4.4862   -8.2713    1.6553 H         1 <0>         0.0000
     58 H27         5.9628   -9.9021    6.1564 H         1 <0>         0.0000
     59 H28         5.5368  -10.2638    4.4961 H         1 <0>         0.0000
     60 H29         5.5971   -7.4633    5.7383 H         1 <0>         0.0000
     61 H30         4.1381   -8.4002    5.4353 H         1 <0>         0.0000
     62 H31         7.4787   -8.8849    3.6983 H         1 <0>         0.0000
     63 H32         8.0085  -10.1757    4.8078 H         1 <0>         0.0000
     64 H33         6.0978   -7.3661    3.3127 H         1 <0>         0.0000
@<TRIPOS>BOND
     1    1    3 2
     2    1    4 1
     3    2    4 2
     4    2    5 1
     5    3   12 1
     6    4   16 1
     7    5    7 1
     8    5   26 2
     9    6    8 1
    10    6   17 1
    11    6   27 2
    12    7    9 1
    13    8   13 1
    14    9   16 1
    15   10   11 1
    16   10   14 1
    17   11   15 1
    18   12   13 1
    19   12   14 1
    20   13   16 1
    21   14   17 1
    22   15   17 1
    23   15   24 1
    24   16   18 1
    25   17   19 1
    26   20   24 1
    27   21   22 1
    28   21   23 1
    29   22   24 1
    30   23   30 1
    31   25   31 1
    32   28   31 2
    33   29   31 2
    34   30   31 1
    35    1   32 1
    36    2   33 1
    37    3   34 1
    38    7   35 1
    39    7   36 1
    40    8   37 1
    41    8   38 1
    42    9   39 1
    43    9   40 1
    44   10   41 1
    45   10   42 1
    46   11   43 1
    47   11   44 1
    48   12   45 1
    49   13   46 1
    50   14   47 1
    51   15   48 1
    52   18   49 1
    53   18   50 1
    54   18   51 1
    55   19   52 1
    56   19   53 1
    57   19   54 1
    58   20   55 1
    59   20   56 1
    60   20   57 1
    61   21   58 1
    62   21   59 1
    63   22   60 1
    64   22   61 1
    65   23   62 1
    66   23   63 1
    67   24   64 1

@<TRIPOS>MOLECULE
DKPES_CSD_MMMF_1_30
   64    67     0     0     0
SMALL
USER_CHARGES

@<TRIPOS>ATOM
      1 C1          2.0121   -1.2143    1.2319 C.2       1 <0>        -0.1500
      2 C2          0.3162   -0.9298   -0.4630 C.2       1 <0>        -0.1356
      3 C3          2.9245   -1.9459    1.8863 C.2       1 <0>        -0.2882
      4 C4          1.3270   -1.6661    0.0290 C.2       1 <0>        -0.1382
      5 C5         -0.4261   -1.3440   -1.6772 C.2       1 <0>         0.4946
      6 C6          3.0520   -6.2645    1.2605 C.2       1 <0>         0.4480
      7 C7         -0.0521   -2.6371   -2.3563 C.3       1 <0>         0.0610
      8 C8          2.6249   -5.3856    0.0869 C.3       1 <0>         0.0610
      9 C9          0.6099   -3.6118   -1.3906 C.3       1 <0>         0.0000
     10 C10         4.4784   -3.8939    3.7777 C.3       1 <0>         0.0000
     11 C11         4.7891   -5.2227    4.4865 C.3       1 <0>         0.0000
     12 C12         3.3262   -3.3340    1.4645 C.3       1 <0>         0.1382
     13 C13         2.2273   -3.9675    0.5485 C.3       1 <0>         0.0000
     14 C14         3.5426   -4.2948    2.6428 C.3       1 <0>         0.0000
     15 C15         4.2322   -6.3446    3.5783 C.3       1 <0>         0.0000
     16 C16         1.7910   -2.9885   -0.5996 C.3       1 <0>         0.1382
     17 C17         4.0987   -5.6679    2.1953 C.3       1 <0>         0.0610
     18 C18         2.9581   -2.6968   -1.5724 C.3       1 <0>         0.0000
     19 C19         5.4441   -5.6231    1.4437 C.3       1 <0>         0.0000
     20 C20         4.2804   -8.7995    3.0961 C.3       1 <0>         0.0000
     21 C21         6.3911   -9.2134    5.1576 C.3       1 <0>         0.0000
     22 C22         5.5625   -7.9310    5.0711 C.3       1 <0>         0.0000
     23 C23         6.8204   -9.5060    6.5895 C.3       1 <0>         0.2800
     24 C24         5.0782   -7.6104    3.6426 C.3       1 <0>         0.0000
     25 O1          9.5997   -9.5196    5.9047 O.3       1 <0>        -0.8167
     26 O2         -1.3014   -0.6098   -2.1336 O.2       1 <0>        -0.5700
     27 O3          2.6287   -7.4120    1.3872 O.2       1 <0>        -0.5700
     28 O4          8.4787  -11.0735    4.3717 O.2       1 <0>        -0.8167
     29 O5          9.6792  -11.9411    6.3281 O.2       1 <0>        -0.8167
     30 O6          7.5708  -10.7125    6.6066 O.3       1 <0>        -0.4637
     31 S1          8.9548  -10.8202    5.7307 S.o2      1 <0>         1.6337
     32 H1          1.7714   -0.2251    1.6135 H         1 <0>         0.1500
     33 H2          0.0003    0.0002   -0.0001 H         1 <0>         0.1500
     34 H3          3.4155   -1.5047    2.7491 H         1 <0>         0.1500
     35 H4         -0.9660   -3.0949   -2.7512 H         1 <0>         0.0000
     36 H5          0.6022   -2.4064   -3.2029 H         1 <0>         0.0000
     37 H6          3.4445   -5.3628   -0.6369 H         1 <0>         0.0000
     38 H7          1.7735   -5.8804   -0.3920 H         1 <0>         0.0000
     39 H8         -0.1524   -3.9705   -0.6847 H         1 <0>         0.0000
     40 H9          0.9430   -4.4864   -1.9618 H         1 <0>         0.0000
     41 H10         4.0144   -3.1796    4.4653 H         1 <0>         0.0000
     42 H11         5.3994   -3.4390    3.3963 H         1 <0>         0.0000
     43 H12         5.8694   -5.3151    4.6450 H         1 <0>         0.0000
     44 H13         4.3104   -5.2623    5.4714 H         1 <0>         0.0000
     45 H14         4.2678   -3.2271    0.9157 H         1 <0>         0.0000
     46 H15         1.3362   -4.1106    1.1841 H         1 <0>         0.0000
     47 H16         2.5535   -4.4515    3.1073 H         1 <0>         0.0000
     48 H17         3.2283   -6.6104    3.9404 H         1 <0>         0.0000
     49 H18         3.2850   -3.6286   -2.0152 H         1 <0>         0.0000
     50 H19         3.7697   -2.2435   -1.0182 H         1 <0>         0.0000
     51 H20         2.6102   -2.0207   -2.3426 H         1 <0>         0.0000
     52 H21         6.2005   -5.2008    2.0953 H         1 <0>         0.0000
     53 H22         5.3355   -5.0069    0.5586 H         1 <0>         0.0000
     54 H23         5.7248   -6.6306    1.1587 H         1 <0>         0.0000
     55 H24         3.3864   -8.9844    3.7009 H         1 <0>         0.0000
     56 H25         4.8837   -9.7137    3.0936 H         1 <0>         0.0000
     57 H26         3.9524   -8.6071    2.0692 H         1 <0>         0.0000
     58 H27         5.8230  -10.0703    4.7785 H         1 <0>         0.0000
     59 H28         7.2813   -9.1345    4.5214 H         1 <0>         0.0000
     60 H29         6.1718   -7.0944    5.4372 H         1 <0>         0.0000
     61 H30         4.6997   -8.0091    5.7448 H         1 <0>         0.0000
     62 H31         5.9490   -9.6285    7.2406 H         1 <0>         0.0000
     63 H32         7.4487   -8.7002    6.9821 H         1 <0>         0.0000
     64 H33         5.9579   -7.4756    2.9974 H         1 <0>         0.0000
@<TRIPOS>BOND
     1    1    3 2
     2    1    4 1
     3    2    4 2
     4    2    5 1
     5    3   12 1
     6    4   16 1
     7    5    7 1
     8    5   26 2
     9    6    8 1
    10    6   17 1
    11    6   27 2
    12    7    9 1
    13    8   13 1
    14    9   16 1
    15   10   11 1
    16   10   14 1
    17   11   15 1
    18   12   13 1
    19   12   14 1
    20   13   16 1
    21   14   17 1
    22   15   17 1
    23   15   24 1
    24   16   18 1
    25   17   19 1
    26   20   24 1
    27   21   22 1
    28   21   23 1
    29   22   24 1
    30   23   30 1
    31   25   31 1
    32   28   31 2
    33   29   31 2
    34   30   31 1
    35    1   32 1
    36    2   33 1
    37    3   34 1
    38    7   35 1
    39    7   36 1
    40    8   37 1
    41    8   38 1
    42    9   39 1
    43    9   40 1
    44   10   41 1
    45   10   42 1
    46   11   43 1
    47   11   44 1
    48   12   45 1
    49   13   46 1
    50   14   47 1
    51   15   48 1
    52   18   49 1
    53   18   50 1
    54   18   51 1
    55   19   52 1
    56   19   53 1
    57   19   54 1
    58   20   55 1
    59   20   56 1
    60   20   57 1
    61   21   58 1
    62   21   59 1
    63   22   60 1
    64   22   61 1
    65   23   62 1
    66   23   63 1
    67   24   64 1

@<TRIPOS>MOLECULE
DKPES_CSD_MMMF_1_10
   64    67     0     0     0
SMALL
USER_CHARGES

@<TRIPOS>ATOM
      1 C1          2.0121   -1.2143    1.2319 C.2       1 <0>        -0.1500
      2 C2          0.3162   -0.9298   -0.4630 C.2       1 <0>        -0.1356
      3 C3          2.9245   -1.9459    1.8863 C.2       1 <0>        -0.2882
      4 C4          1.3270   -1.6661    0.0290 C.2       1 <0>        -0.1382
      5 C5         -0.4261   -1.3440   -1.6772 C.2       1 <0>         0.4946
      6 C6          3.0520   -6.2645    1.2605 C.2       1 <0>         0.4480
      7 C7         -0.0521   -2.6371   -2.3563 C.3       1 <0>         0.0610
      8 C8          2.6249   -5.3856    0.0869 C.3       1 <0>         0.0610
      9 C9          0.6099   -3.6118   -1.3906 C.3       1 <0>         0.0000
     10 C10         4.4784   -3.8939    3.7777 C.3       1 <0>         0.0000
     11 C11         4.7891   -5.2227    4.4865 C.3       1 <0>         0.0000
     12 C12         3.3262   -3.3340    1.4645 C.3       1 <0>         0.1382
     13 C13         2.2273   -3.9675    0.5485 C.3       1 <0>         0.0000
     14 C14         3.5426   -4.2948    2.6428 C.3       1 <0>         0.0000
     15 C15         4.2322   -6.3446    3.5783 C.3       1 <0>         0.0000
     16 C16         1.7910   -2.9885   -0.5996 C.3       1 <0>         0.1382
     17 C17         4.0987   -5.6679    2.1953 C.3       1 <0>         0.0610
     18 C18         2.9581   -2.6968   -1.5724 C.3       1 <0>         0.0000
     19 C19         5.4441   -5.6231    1.4437 C.3       1 <0>         0.0000
     20 C20         4.5183   -8.6617    2.6779 C.3       1 <0>         0.0000
     21 C21         5.9758   -9.4919    5.1403 C.3       1 <0>         0.0000
     22 C22         5.1520   -8.2058    5.0632 C.3       1 <0>         0.0000
     23 C23         7.4225   -9.2547    4.7271 C.3       1 <0>         0.2800
     24 C24         5.0782   -7.6104    3.6426 C.3       1 <0>         0.0000
     25 O1          8.0146  -10.8198    2.4046 O.3       1 <0>        -0.8167
     26 O2         -1.3014   -0.6098   -2.1336 O.2       1 <0>        -0.5700
     27 O3          2.6287   -7.4120    1.3872 O.2       1 <0>        -0.5700
     28 O4          6.7359  -12.2573    3.9278 O.2       1 <0>        -0.8167
     29 O5          9.1792  -12.4586    3.8215 O.2       1 <0>        -0.8167
     30 O6          8.1372  -10.4782    4.8338 O.3       1 <0>        -0.4637
     31 S1          8.0099  -11.5993    3.6416 S.o2      1 <0>         1.6337
     32 H1          1.7714   -0.2251    1.6135 H         1 <0>         0.1500
     33 H2          0.0003    0.0002   -0.0001 H         1 <0>         0.1500
     34 H3          3.4155   -1.5047    2.7491 H         1 <0>         0.1500
     35 H4         -0.9660   -3.0949   -2.7512 H         1 <0>         0.0000
     36 H5          0.6022   -2.4064   -3.2029 H         1 <0>         0.0000
     37 H6          3.4445   -5.3628   -0.6369 H         1 <0>         0.0000
     38 H7          1.7735   -5.8804   -0.3920 H         1 <0>         0.0000
     39 H8         -0.1524   -3.9705   -0.6847 H         1 <0>         0.0000
     40 H9          0.9430   -4.4864   -1.9618 H         1 <0>         0.0000
     41 H10         4.0144   -3.1796    4.4653 H         1 <0>         0.0000
     42 H11         5.3994   -3.4390    3.3963 H         1 <0>         0.0000
     43 H12         5.8694   -5.3151    4.6450 H         1 <0>         0.0000
     44 H13         4.3104   -5.2623    5.4714 H         1 <0>         0.0000
     45 H14         4.2678   -3.2271    0.9157 H         1 <0>         0.0000
     46 H15         1.3362   -4.1106    1.1841 H         1 <0>         0.0000
     47 H16         2.5535   -4.4515    3.1073 H         1 <0>         0.0000
     48 H17         3.2283   -6.6104    3.9404 H         1 <0>         0.0000
     49 H18         3.2850   -3.6286   -2.0152 H         1 <0>         0.0000
     50 H19         3.7697   -2.2435   -1.0182 H         1 <0>         0.0000
     51 H20         2.6102   -2.0207   -2.3426 H         1 <0>         0.0000
     52 H21         6.2005   -5.2008    2.0953 H         1 <0>         0.0000
     53 H22         5.3355   -5.0069    0.5586 H         1 <0>         0.0000
     54 H23         5.7248   -6.6306    1.1587 H         1 <0>         0.0000
     55 H24         3.4984   -8.9472    2.9564 H         1 <0>         0.0000
     56 H25         5.1358   -9.5663    2.6762 H         1 <0>         0.0000
     57 H26         4.4862   -8.2713    1.6553 H         1 <0>         0.0000
     58 H27         5.9628   -9.9021    6.1564 H         1 <0>         0.0000
     59 H28         5.5368  -10.2638    4.4961 H         1 <0>         0.0000
     60 H29         5.5971   -7.4633    5.7383 H         1 <0>         0.0000
     61 H30         4.1381   -8.4002    5.4353 H         1 <0>         0.0000
     62 H31         7.8983   -8.5154    5.3792 H         1 <0>         0.0000
     63 H32         7.4815   -8.9069    3.6908 H         1 <0>         0.0000
     64 H33         6.0978   -7.3661    3.3127 H         1 <0>         0.0000
@<TRIPOS>BOND
     1    1    3 2
     2    1    4 1
     3    2    4 2
     4    2    5 1
     5    3   12 1
     6    4   16 1
     7    5    7 1
     8    5   26 2
     9    6    8 1
    10    6   17 1
    11    6   27 2
    12    7    9 1
    13    8   13 1
    14    9   16 1
    15   10   11 1
    16   10   14 1
    17   11   15 1
    18   12   13 1
    19   12   14 1
    20   13   16 1
    21   14   17 1
    22   15   17 1
    23   15   24 1
    24   16   18 1
    25   17   19 1
    26   20   24 1
    27   21   22 1
    28   21   23 1
    29   22   24 1
    30   23   30 1
    31   25   31 1
    32   28   31 2
    33   29   31 2
    34   30   31 1
    35    1   32 1
    36    2   33 1
    37    3   34 1
    38    7   35 1
    39    7   36 1
    40    8   37 1
    41    8   38 1
    42    9   39 1
    43    9   40 1
    44   10   41 1
    45   10   42 1
    46   11   43 1
    47   11   44 1
    48   12   45 1
    49   13   46 1
    50   14   47 1
    51   15   48 1
    52   18   49 1
    53   18   50 1
    54   18   51 1
    55   19   52 1
    56   19   53 1
    57   19   54 1
    58   20   55 1
    59   20   56 1
    60   20   57 1
    61   21   58 1
    62   21   59 1
    63   22   60 1
    64   22   61 1
    65   23   62 1
    66   23   63 1
    67   24   64 1

@<TRIPOS>MOLECULE
DKPES_CSD_MMMF_1_8
   64    67     0     0     0
SMALL
USER_CHARGES

@<TRIPOS>ATOM
      1 C1          2.0121   -1.2143    1.2319 C.2       1 <0>        -0.1500
      2 C2          0.3162   -0.9298   -0.4630 C.2       1 <0>        -0.1356
      3 C3          2.9245   -1.9459    1.8863 C.2       1 <0>        -0.2882
      4 C4          1.3270   -1.6661    0.0290 C.2       1 <0>        -0.1382
      5 C5         -0.4261   -1.3440   -1.6772 C.2       1 <0>         0.4946
      6 C6          3.0520   -6.2645    1.2605 C.2       1 <0>         0.4480
      7 C7         -0.0521   -2.6371   -2.3563 C.3       1 <0>         0.0610
      8 C8          2.6249   -5.3856    0.0869 C.3       1 <0>         0.0610
      9 C9          0.6099   -3.6118   -1.3906 C.3       1 <0>         0.0000
     10 C10         4.4784   -3.8939    3.7777 C.3       1 <0>         0.0000
     11 C11         4.7891   -5.2227    4.4865 C.3       1 <0>         0.0000
     12 C12         3.3262   -3.3340    1.4645 C.3       1 <0>         0.1382
     13 C13         2.2273   -3.9675    0.5485 C.3       1 <0>         0.0000
     14 C14         3.5426   -4.2948    2.6428 C.3       1 <0>         0.0000
     15 C15         4.2322   -6.3446    3.5783 C.3       1 <0>         0.0000
     16 C16         1.7910   -2.9885   -0.5996 C.3       1 <0>         0.1382
     17 C17         4.0987   -5.6679    2.1953 C.3       1 <0>         0.0610
     18 C18         2.9581   -2.6968   -1.5724 C.3       1 <0>         0.0000
     19 C19         5.4441   -5.6231    1.4437 C.3       1 <0>         0.0000
     20 C20         4.5183   -8.6617    2.6779 C.3       1 <0>         0.0000
     21 C21         6.3229   -9.1702    5.2571 C.3       1 <0>         0.0000
     22 C22         5.1520   -8.2058    5.0632 C.3       1 <0>         0.0000
     23 C23         6.3373   -9.7563    6.6629 C.3       1 <0>         0.2800
     24 C24         5.0782   -7.6104    3.6426 C.3       1 <0>         0.0000
     25 O1          8.7468   -8.9707    7.9937 O.3       1 <0>        -0.8167
     26 O2         -1.3014   -0.6098   -2.1336 O.2       1 <0>        -0.5700
     27 O3          2.6287   -7.4120    1.3872 O.2       1 <0>        -0.5700
     28 O4          9.3705   -9.6191    5.7107 O.2       1 <0>        -0.8167
     29 O5          9.6970  -11.1976    7.5608 O.2       1 <0>        -0.8167
     30 O6          7.4346  -10.6521    6.7758 O.3       1 <0>        -0.4637
     31 S1          8.9427  -10.0595    7.0377 S.o2      1 <0>         1.6337
     32 H1          1.7714   -0.2251    1.6135 H         1 <0>         0.1500
     33 H2          0.0003    0.0002   -0.0001 H         1 <0>         0.1500
     34 H3          3.4155   -1.5047    2.7491 H         1 <0>         0.1500
     35 H4         -0.9660   -3.0949   -2.7512 H         1 <0>         0.0000
     36 H5          0.6022   -2.4064   -3.2029 H         1 <0>         0.0000
     37 H6          3.4445   -5.3628   -0.6369 H         1 <0>         0.0000
     38 H7          1.7735   -5.8804   -0.3920 H         1 <0>         0.0000
     39 H8         -0.1524   -3.9705   -0.6847 H         1 <0>         0.0000
     40 H9          0.9430   -4.4864   -1.9618 H         1 <0>         0.0000
     41 H10         4.0144   -3.1796    4.4653 H         1 <0>         0.0000
     42 H11         5.3994   -3.4390    3.3963 H         1 <0>         0.0000
     43 H12         5.8694   -5.3151    4.6450 H         1 <0>         0.0000
     44 H13         4.3104   -5.2623    5.4714 H         1 <0>         0.0000
     45 H14         4.2678   -3.2271    0.9157 H         1 <0>         0.0000
     46 H15         1.3362   -4.1106    1.1841 H         1 <0>         0.0000
     47 H16         2.5535   -4.4515    3.1073 H         1 <0>         0.0000
     48 H17         3.2283   -6.6104    3.9404 H         1 <0>         0.0000
     49 H18         3.2850   -3.6286   -2.0152 H         1 <0>         0.0000
     50 H19         3.7697   -2.2435   -1.0182 H         1 <0>         0.0000
     51 H20         2.6102   -2.0207   -2.3426 H         1 <0>         0.0000
     52 H21         6.2005   -5.2008    2.0953 H         1 <0>         0.0000
     53 H22         5.3355   -5.0069    0.5586 H         1 <0>         0.0000
     54 H23         5.7248   -6.6306    1.1587 H         1 <0>         0.0000
     55 H24         3.4984   -8.9472    2.9564 H         1 <0>         0.0000
     56 H25         5.1358   -9.5663    2.6762 H         1 <0>         0.0000
     57 H26         4.4862   -8.2713    1.6553 H         1 <0>         0.0000
     58 H27         6.2743   -9.9919    4.5337 H         1 <0>         0.0000
     59 H28         7.2737   -8.6565    5.0689 H         1 <0>         0.0000
     60 H29         5.2482   -7.3872    5.7883 H         1 <0>         0.0000
     61 H30         4.2124   -8.7226    5.2963 H         1 <0>         0.0000
     62 H31         5.4142  -10.3091    6.8645 H         1 <0>         0.0000
     63 H32         6.4529   -8.9686    7.4141 H         1 <0>         0.0000
     64 H33         6.0978   -7.3661    3.3127 H         1 <0>         0.0000
@<TRIPOS>BOND
     1    1    3 2
     2    1    4 1
     3    2    4 2
     4    2    5 1
     5    3   12 1
     6    4   16 1
     7    5    7 1
     8    5   26 2
     9    6    8 1
    10    6   17 1
    11    6   27 2
    12    7    9 1
    13    8   13 1
    14    9   16 1
    15   10   11 1
    16   10   14 1
    17   11   15 1
    18   12   13 1
    19   12   14 1
    20   13   16 1
    21   14   17 1
    22   15   17 1
    23   15   24 1
    24   16   18 1
    25   17   19 1
    26   20   24 1
    27   21   22 1
    28   21   23 1
    29   22   24 1
    30   23   30 1
    31   25   31 1
    32   28   31 2
    33   29   31 2
    34   30   31 1
    35    1   32 1
    36    2   33 1
    37    3   34 1
    38    7   35 1
    39    7   36 1
    40    8   37 1
    41    8   38 1
    42    9   39 1
    43    9   40 1
    44   10   41 1
    45   10   42 1
    46   11   43 1
    47   11   44 1
    48   12   45 1
    49   13   46 1
    50   14   47 1
    51   15   48 1
    52   18   49 1
    53   18   50 1
    54   18   51 1
    55   19   52 1
    56   19   53 1
    57   19   54 1
    58   20   55 1
    59   20   56 1
    60   20   57 1
    61   21   58 1
    62   21   59 1
    63   22   60 1
    64   22   61 1
    65   23   62 1
    66   23   63 1
    67   24   64 1

@<TRIPOS>MOLECULE
DKPES_CSD_MMMF_1_12
   64    67     0     0     0
SMALL
USER_CHARGES

@<TRIPOS>ATOM
      1 C1          2.0121   -1.2143    1.2319 C.2       1 <0>        -0.1500
      2 C2          0.3162   -0.9298   -0.4630 C.2       1 <0>        -0.1356
      3 C3          2.9245   -1.9459    1.8863 C.2       1 <0>        -0.2882
      4 C4          1.3270   -1.6661    0.0290 C.2       1 <0>        -0.1382
      5 C5         -0.4261   -1.3440   -1.6772 C.2       1 <0>         0.4946
      6 C6          3.0520   -6.2645    1.2605 C.2       1 <0>         0.4480
      7 C7         -0.0521   -2.6371   -2.3563 C.3       1 <0>         0.0610
      8 C8          2.6249   -5.3856    0.0869 C.3       1 <0>         0.0610
      9 C9          0.6099   -3.6118   -1.3906 C.3       1 <0>         0.0000
     10 C10         4.4784   -3.8939    3.7777 C.3       1 <0>         0.0000
     11 C11         4.7891   -5.2227    4.4865 C.3       1 <0>         0.0000
     12 C12         3.3262   -3.3340    1.4645 C.3       1 <0>         0.1382
     13 C13         2.2273   -3.9675    0.5485 C.3       1 <0>         0.0000
     14 C14         3.5426   -4.2948    2.6428 C.3       1 <0>         0.0000
     15 C15         4.2322   -6.3446    3.5783 C.3       1 <0>         0.0000
     16 C16         1.7910   -2.9885   -0.5996 C.3       1 <0>         0.1382
     17 C17         4.0987   -5.6679    2.1953 C.3       1 <0>         0.0610
     18 C18         2.9581   -2.6968   -1.5724 C.3       1 <0>         0.0000
     19 C19         5.4441   -5.6231    1.4437 C.3       1 <0>         0.0000
     20 C20         4.5183   -8.6617    2.6779 C.3       1 <0>         0.0000
     21 C21         5.5328   -9.6867    5.0816 C.3       1 <0>         0.0000
     22 C22         5.1520   -8.2058    5.0632 C.3       1 <0>         0.0000
     23 C23         5.5627  -10.2385    6.5010 C.3       1 <0>         0.2800
     24 C24         5.0782   -7.6104    3.6426 C.3       1 <0>         0.0000
     25 O1          6.7188  -11.3634    8.8658 O.3       1 <0>        -0.8167
     26 O2         -1.3014   -0.6098   -2.1336 O.2       1 <0>        -0.5700
     27 O3          2.6287   -7.4120    1.3872 O.2       1 <0>        -0.5700
     28 O4          5.6784   -9.2395    9.5200 O.2       1 <0>        -0.8167
     29 O5          8.0996   -9.3460    9.1351 O.2       1 <0>        -0.8167
     30 O6          6.5320   -9.5209    7.2525 O.3       1 <0>        -0.4637
     31 S1          6.7829   -9.9032    8.8290 S.o2      1 <0>         1.6337
     32 H1          1.7714   -0.2251    1.6135 H         1 <0>         0.1500
     33 H2          0.0003    0.0002   -0.0001 H         1 <0>         0.1500
     34 H3          3.4155   -1.5047    2.7491 H         1 <0>         0.1500
     35 H4         -0.9660   -3.0949   -2.7512 H         1 <0>         0.0000
     36 H5          0.6022   -2.4064   -3.2029 H         1 <0>         0.0000
     37 H6          3.4445   -5.3628   -0.6369 H         1 <0>         0.0000
     38 H7          1.7735   -5.8804   -0.3920 H         1 <0>         0.0000
     39 H8         -0.1524   -3.9705   -0.6847 H         1 <0>         0.0000
     40 H9          0.9430   -4.4864   -1.9618 H         1 <0>         0.0000
     41 H10         4.0144   -3.1796    4.4653 H         1 <0>         0.0000
     42 H11         5.3994   -3.4390    3.3963 H         1 <0>         0.0000
     43 H12         5.8694   -5.3151    4.6450 H         1 <0>         0.0000
     44 H13         4.3104   -5.2623    5.4714 H         1 <0>         0.0000
     45 H14         4.2678   -3.2271    0.9157 H         1 <0>         0.0000
     46 H15         1.3362   -4.1106    1.1841 H         1 <0>         0.0000
     47 H16         2.5535   -4.4515    3.1073 H         1 <0>         0.0000
     48 H17         3.2283   -6.6104    3.9404 H         1 <0>         0.0000
     49 H18         3.2850   -3.6286   -2.0152 H         1 <0>         0.0000
     50 H19         3.7697   -2.2435   -1.0182 H         1 <0>         0.0000
     51 H20         2.6102   -2.0207   -2.3426 H         1 <0>         0.0000
     52 H21         6.2005   -5.2008    2.0953 H         1 <0>         0.0000
     53 H22         5.3355   -5.0069    0.5586 H         1 <0>         0.0000
     54 H23         5.7248   -6.6306    1.1587 H         1 <0>         0.0000
     55 H24         3.4984   -8.9472    2.9564 H         1 <0>         0.0000
     56 H25         5.1358   -9.5663    2.6762 H         1 <0>         0.0000
     57 H26         4.4862   -8.2713    1.6553 H         1 <0>         0.0000
     58 H27         4.8255  -10.2780    4.4891 H         1 <0>         0.0000
     59 H28         6.5150   -9.8326    4.6154 H         1 <0>         0.0000
     60 H29         5.8943   -7.6456    5.6465 H         1 <0>         0.0000
     61 H30         4.1882   -8.0715    5.5705 H         1 <0>         0.0000
     62 H31         5.8362  -11.2985    6.5019 H         1 <0>         0.0000
     63 H32         4.5890  -10.1209    6.9872 H         1 <0>         0.0000
     64 H33         6.0978   -7.3661    3.3127 H         1 <0>         0.0000
@<TRIPOS>BOND
     1    1    3 2
     2    1    4 1
     3    2    4 2
     4    2    5 1
     5    3   12 1
     6    4   16 1
     7    5    7 1
     8    5   26 2
     9    6    8 1
    10    6   17 1
    11    6   27 2
    12    7    9 1
    13    8   13 1
    14    9   16 1
    15   10   11 1
    16   10   14 1
    17   11   15 1
    18   12   13 1
    19   12   14 1
    20   13   16 1
    21   14   17 1
    22   15   17 1
    23   15   24 1
    24   16   18 1
    25   17   19 1
    26   20   24 1
    27   21   22 1
    28   21   23 1
    29   22   24 1
    30   23   30 1
    31   25   31 1
    32   28   31 2
    33   29   31 2
    34   30   31 1
    35    1   32 1
    36    2   33 1
    37    3   34 1
    38    7   35 1
    39    7   36 1
    40    8   37 1
    41    8   38 1
    42    9   39 1
    43    9   40 1
    44   10   41 1
    45   10   42 1
    46   11   43 1
    47   11   44 1
    48   12   45 1
    49   13   46 1
    50   14   47 1
    51   15   48 1
    52   18   49 1
    53   18   50 1
    54   18   51 1
    55   19   52 1
    56   19   53 1
    57   19   54 1
    58   20   55 1
    59   20   56 1
    60   20   57 1
    61   21   58 1
    62   21   59 1
    63   22   60 1
    64   22   61 1
    65   23   62 1
    66   23   63 1
    67   24   64 1

@<TRIPOS>MOLECULE
DKPES_CSD_MMMF_1_26
   64    67     0     0     0
SMALL
USER_CHARGES

@<TRIPOS>ATOM
      1 C1          2.0121   -1.2143    1.2319 C.2       1 <0>        -0.1500
      2 C2          0.3162   -0.9298   -0.4630 C.2       1 <0>        -0.1356
      3 C3          2.9245   -1.9459    1.8863 C.2       1 <0>        -0.2882
      4 C4          1.3270   -1.6661    0.0290 C.2       1 <0>        -0.1382
      5 C5         -0.4261   -1.3440   -1.6772 C.2       1 <0>         0.4946
      6 C6          3.0520   -6.2645    1.2605 C.2       1 <0>         0.4480
      7 C7         -0.0521   -2.6371   -2.3563 C.3       1 <0>         0.0610
      8 C8          2.6249   -5.3856    0.0869 C.3       1 <0>         0.0610
      9 C9          0.6099   -3.6118   -1.3906 C.3       1 <0>         0.0000
     10 C10         4.4784   -3.8939    3.7777 C.3       1 <0>         0.0000
     11 C11         4.7891   -5.2227    4.4865 C.3       1 <0>         0.0000
     12 C12         3.3262   -3.3340    1.4645 C.3       1 <0>         0.1382
     13 C13         2.2273   -3.9675    0.5485 C.3       1 <0>         0.0000
     14 C14         3.5426   -4.2948    2.6428 C.3       1 <0>         0.0000
     15 C15         4.2322   -6.3446    3.5783 C.3       1 <0>         0.0000
     16 C16         1.7910   -2.9885   -0.5996 C.3       1 <0>         0.1382
     17 C17         4.0987   -5.6679    2.1953 C.3       1 <0>         0.0610
     18 C18         2.9581   -2.6968   -1.5724 C.3       1 <0>         0.0000
     19 C19         5.4441   -5.6231    1.4437 C.3       1 <0>         0.0000
     20 C20         4.6826   -8.4407    4.8686 C.3       1 <0>         0.0000
     21 C21         7.4569   -8.5116    3.2985 C.3       1 <0>         0.0000
     22 C22         6.5907   -7.3138    3.6905 C.3       1 <0>         0.0000
     23 C23         8.9411   -8.1821    3.3905 C.3       1 <0>         0.2800
     24 C24         5.0782   -7.6104    3.6426 C.3       1 <0>         0.0000
     25 O1         10.2091  -10.0104    5.1914 O.3       1 <0>        -0.8167
     26 O2         -1.3014   -0.6098   -2.1336 O.2       1 <0>        -0.5700
     27 O3          2.6287   -7.4120    1.3872 O.2       1 <0>        -0.5700
     28 O4          8.0937   -9.3322    6.2339 O.2       1 <0>        -0.8167
     29 O5         10.1951   -8.2793    6.9385 O.2       1 <0>        -0.8167
     30 O6          9.2450   -7.8001    4.7250 O.3       1 <0>        -0.4637
     31 S1          9.4591   -8.9553    5.8713 S.o2      1 <0>         1.6337
     32 H1          1.7714   -0.2251    1.6135 H         1 <0>         0.1500
     33 H2          0.0003    0.0002   -0.0001 H         1 <0>         0.1500
     34 H3          3.4155   -1.5047    2.7491 H         1 <0>         0.1500
     35 H4         -0.9660   -3.0949   -2.7512 H         1 <0>         0.0000
     36 H5          0.6022   -2.4064   -3.2029 H         1 <0>         0.0000
     37 H6          3.4445   -5.3628   -0.6369 H         1 <0>         0.0000
     38 H7          1.7735   -5.8804   -0.3920 H         1 <0>         0.0000
     39 H8         -0.1524   -3.9705   -0.6847 H         1 <0>         0.0000
     40 H9          0.9430   -4.4864   -1.9618 H         1 <0>         0.0000
     41 H10         4.0144   -3.1796    4.4653 H         1 <0>         0.0000
     42 H11         5.3994   -3.4390    3.3963 H         1 <0>         0.0000
     43 H12         5.8694   -5.3151    4.6450 H         1 <0>         0.0000
     44 H13         4.3104   -5.2623    5.4714 H         1 <0>         0.0000
     45 H14         4.2678   -3.2271    0.9157 H         1 <0>         0.0000
     46 H15         1.3362   -4.1106    1.1841 H         1 <0>         0.0000
     47 H16         2.5535   -4.4515    3.1073 H         1 <0>         0.0000
     48 H17         3.2283   -6.6104    3.9404 H         1 <0>         0.0000
     49 H18         3.2850   -3.6286   -2.0152 H         1 <0>         0.0000
     50 H19         3.7697   -2.2435   -1.0182 H         1 <0>         0.0000
     51 H20         2.6102   -2.0207   -2.3426 H         1 <0>         0.0000
     52 H21         6.2005   -5.2008    2.0953 H         1 <0>         0.0000
     53 H22         5.3355   -5.0069    0.5586 H         1 <0>         0.0000
     54 H23         5.7248   -6.6306    1.1587 H         1 <0>         0.0000
     55 H24         4.8689   -7.8872    5.7950 H         1 <0>         0.0000
     56 H25         5.2494   -9.3769    4.9126 H         1 <0>         0.0000
     57 H26         3.6169   -8.6907    4.8400 H         1 <0>         0.0000
     58 H27         7.2468   -9.3719    3.9440 H         1 <0>         0.0000
     59 H28         7.2199   -8.8342    2.2771 H         1 <0>         0.0000
     60 H29         6.8129   -6.4825    3.0088 H         1 <0>         0.0000
     61 H30         6.8694   -6.9772    4.6971 H         1 <0>         0.0000
     62 H31         9.1987   -7.3530    2.7237 H         1 <0>         0.0000
     63 H32         9.5521   -9.0523    3.1303 H         1 <0>         0.0000
     64 H33         4.8690   -8.2160    2.7494 H         1 <0>         0.0000
@<TRIPOS>BOND
     1    1    3 2
     2    1    4 1
     3    2    4 2
     4    2    5 1
     5    3   12 1
     6    4   16 1
     7    5    7 1
     8    5   26 2
     9    6    8 1
    10    6   17 1
    11    6   27 2
    12    7    9 1
    13    8   13 1
    14    9   16 1
    15   10   11 1
    16   10   14 1
    17   11   15 1
    18   12   13 1
    19   12   14 1
    20   13   16 1
    21   14   17 1
    22   15   17 1
    23   15   24 1
    24   16   18 1
    25   17   19 1
    26   20   24 1
    27   21   22 1
    28   21   23 1
    29   22   24 1
    30   23   30 1
    31   25   31 1
    32   28   31 2
    33   29   31 2
    34   30   31 1
    35    1   32 1
    36    2   33 1
    37    3   34 1
    38    7   35 1
    39    7   36 1
    40    8   37 1
    41    8   38 1
    42    9   39 1
    43    9   40 1
    44   10   41 1
    45   10   42 1
    46   11   43 1
    47   11   44 1
    48   12   45 1
    49   13   46 1
    50   14   47 1
    51   15   48 1
    52   18   49 1
    53   18   50 1
    54   18   51 1
    55   19   52 1
    56   19   53 1
    57   19   54 1
    58   20   55 1
    59   20   56 1
    60   20   57 1
    61   21   58 1
    62   21   59 1
    63   22   60 1
    64   22   61 1
    65   23   62 1
    66   23   63 1
    67   24   64 1

@<TRIPOS>MOLECULE
DKPES_CSD_MMMF_1_31
   64    67     0     0     0
SMALL
USER_CHARGES

@<TRIPOS>ATOM
      1 C1          2.0121   -1.2143    1.2319 C.2       1 <0>        -0.1500
      2 C2          0.3162   -0.9298   -0.4630 C.2       1 <0>        -0.1356
      3 C3          2.9245   -1.9459    1.8863 C.2       1 <0>        -0.2882
      4 C4          1.3270   -1.6661    0.0290 C.2       1 <0>        -0.1382
      5 C5         -0.4261   -1.3440   -1.6772 C.2       1 <0>         0.4946
      6 C6          3.0520   -6.2645    1.2605 C.2       1 <0>         0.4480
      7 C7         -0.0521   -2.6371   -2.3563 C.3       1 <0>         0.0610
      8 C8          2.6249   -5.3856    0.0869 C.3       1 <0>         0.0610
      9 C9          0.6099   -3.6118   -1.3906 C.3       1 <0>         0.0000
     10 C10         4.4784   -3.8939    3.7777 C.3       1 <0>         0.0000
     11 C11         4.7891   -5.2227    4.4865 C.3       1 <0>         0.0000
     12 C12         3.3262   -3.3340    1.4645 C.3       1 <0>         0.1382
     13 C13         2.2273   -3.9675    0.5485 C.3       1 <0>         0.0000
     14 C14         3.5426   -4.2948    2.6428 C.3       1 <0>         0.0000
     15 C15         4.2322   -6.3446    3.5783 C.3       1 <0>         0.0000
     16 C16         1.7910   -2.9885   -0.5996 C.3       1 <0>         0.1382
     17 C17         4.0987   -5.6679    2.1953 C.3       1 <0>         0.0610
     18 C18         2.9581   -2.6968   -1.5724 C.3       1 <0>         0.0000
     19 C19         5.4441   -5.6231    1.4437 C.3       1 <0>         0.0000
     20 C20         4.5183   -8.6617    2.6779 C.3       1 <0>         0.0000
     21 C21         6.1805   -7.5138    5.9587 C.3       1 <0>         0.0000
     22 C22         5.1520   -8.2058    5.0632 C.3       1 <0>         0.0000
     23 C23         6.2405   -8.1544    7.3393 C.3       1 <0>         0.2800
     24 C24         5.0782   -7.6104    3.6426 C.3       1 <0>         0.0000
     25 O1          8.9091   -9.0538    7.8528 O.3       1 <0>        -0.8167
     26 O2         -1.3014   -0.6098   -2.1336 O.2       1 <0>        -0.5700
     27 O3          2.6287   -7.4120    1.3872 O.2       1 <0>        -0.5700
     28 O4          8.3758   -9.6823    5.5415 O.2       1 <0>        -0.8167
     29 O5          8.2204  -11.3561    7.3291 O.2       1 <0>        -0.8167
     30 O6          6.5899   -9.5242    7.1953 O.3       1 <0>        -0.4637
     31 S1          8.1605   -9.9415    6.9643 S.o2      1 <0>         1.6337
     32 H1          1.7714   -0.2251    1.6135 H         1 <0>         0.1500
     33 H2          0.0003    0.0002   -0.0001 H         1 <0>         0.1500
     34 H3          3.4155   -1.5047    2.7491 H         1 <0>         0.1500
     35 H4         -0.9660   -3.0949   -2.7512 H         1 <0>         0.0000
     36 H5          0.6022   -2.4064   -3.2029 H         1 <0>         0.0000
     37 H6          3.4445   -5.3628   -0.6369 H         1 <0>         0.0000
     38 H7          1.7735   -5.8804   -0.3920 H         1 <0>         0.0000
     39 H8         -0.1524   -3.9705   -0.6847 H         1 <0>         0.0000
     40 H9          0.9430   -4.4864   -1.9618 H         1 <0>         0.0000
     41 H10         4.0144   -3.1796    4.4653 H         1 <0>         0.0000
     42 H11         5.3994   -3.4390    3.3963 H         1 <0>         0.0000
     43 H12         5.8694   -5.3151    4.6450 H         1 <0>         0.0000
     44 H13         4.3104   -5.2623    5.4714 H         1 <0>         0.0000
     45 H14         4.2678   -3.2271    0.9157 H         1 <0>         0.0000
     46 H15         1.3362   -4.1106    1.1841 H         1 <0>         0.0000
     47 H16         2.5535   -4.4515    3.1073 H         1 <0>         0.0000
     48 H17         3.2283   -6.6104    3.9404 H         1 <0>         0.0000
     49 H18         3.2850   -3.6286   -2.0152 H         1 <0>         0.0000
     50 H19         3.7697   -2.2435   -1.0182 H         1 <0>         0.0000
     51 H20         2.6102   -2.0207   -2.3426 H         1 <0>         0.0000
     52 H21         6.2005   -5.2008    2.0953 H         1 <0>         0.0000
     53 H22         5.3355   -5.0069    0.5586 H         1 <0>         0.0000
     54 H23         5.7248   -6.6306    1.1587 H         1 <0>         0.0000
     55 H24         3.4984   -8.9472    2.9564 H         1 <0>         0.0000
     56 H25         5.1358   -9.5663    2.6762 H         1 <0>         0.0000
     57 H26         4.4862   -8.2713    1.6553 H         1 <0>         0.0000
     58 H27         7.1787   -7.5543    5.5083 H         1 <0>         0.0000
     59 H28         5.9383   -6.4490    6.0634 H         1 <0>         0.0000
     60 H29         4.1645   -8.1244    5.5357 H         1 <0>         0.0000
     61 H30         5.3837   -9.2768    5.0032 H         1 <0>         0.0000
     62 H31         5.2690   -8.0935    7.8401 H         1 <0>         0.0000
     63 H32         6.9954   -7.6670    7.9644 H         1 <0>         0.0000
     64 H33         6.0978   -7.3661    3.3127 H         1 <0>         0.0000
@<TRIPOS>BOND
     1    1    3 2
     2    1    4 1
     3    2    4 2
     4    2    5 1
     5    3   12 1
     6    4   16 1
     7    5    7 1
     8    5   26 2
     9    6    8 1
    10    6   17 1
    11    6   27 2
    12    7    9 1
    13    8   13 1
    14    9   16 1
    15   10   11 1
    16   10   14 1
    17   11   15 1
    18   12   13 1
    19   12   14 1
    20   13   16 1
    21   14   17 1
    22   15   17 1
    23   15   24 1
    24   16   18 1
    25   17   19 1
    26   20   24 1
    27   21   22 1
    28   21   23 1
    29   22   24 1
    30   23   30 1
    31   25   31 1
    32   28   31 2
    33   29   31 2
    34   30   31 1
    35    1   32 1
    36    2   33 1
    37    3   34 1
    38    7   35 1
    39    7   36 1
    40    8   37 1
    41    8   38 1
    42    9   39 1
    43    9   40 1
    44   10   41 1
    45   10   42 1
    46   11   43 1
    47   11   44 1
    48   12   45 1
    49   13   46 1
    50   14   47 1
    51   15   48 1
    52   18   49 1
    53   18   50 1
    54   18   51 1
    55   19   52 1
    56   19   53 1
    57   19   54 1
    58   20   55 1
    59   20   56 1
    60   20   57 1
    61   21   58 1
    62   21   59 1
    63   22   60 1
    64   22   61 1
    65   23   62 1
    66   23   63 1
    67   24   64 1

@<TRIPOS>MOLECULE
DKPES_CSD_MMMF_1_10
   64    67     0     0     0
SMALL
USER_CHARGES

@<TRIPOS>ATOM
      1 C1          2.0121   -1.2143    1.2319 C.2       1 <0>        -0.1500
      2 C2          0.3162   -0.9298   -0.4630 C.2       1 <0>        -0.1356
      3 C3          2.9245   -1.9459    1.8863 C.2       1 <0>        -0.2882
      4 C4          1.3270   -1.6661    0.0290 C.2       1 <0>        -0.1382
      5 C5         -0.4261   -1.3440   -1.6772 C.2       1 <0>         0.4946
      6 C6          3.0520   -6.2645    1.2605 C.2       1 <0>         0.4480
      7 C7         -0.0521   -2.6371   -2.3563 C.3       1 <0>         0.0610
      8 C8          2.6249   -5.3856    0.0869 C.3       1 <0>         0.0610
      9 C9          0.6099   -3.6118   -1.3906 C.3       1 <0>         0.0000
     10 C10         4.4784   -3.8939    3.7777 C.3       1 <0>         0.0000
     11 C11         4.7891   -5.2227    4.4865 C.3       1 <0>         0.0000
     12 C12         3.3262   -3.3340    1.4645 C.3       1 <0>         0.1382
     13 C13         2.2273   -3.9675    0.5485 C.3       1 <0>         0.0000
     14 C14         3.5426   -4.2948    2.6428 C.3       1 <0>         0.0000
     15 C15         4.2322   -6.3446    3.5783 C.3       1 <0>         0.0000
     16 C16         1.7910   -2.9885   -0.5996 C.3       1 <0>         0.1382
     17 C17         4.0987   -5.6679    2.1953 C.3       1 <0>         0.0610
     18 C18         2.9581   -2.6968   -1.5724 C.3       1 <0>         0.0000
     19 C19         5.4441   -5.6231    1.4437 C.3       1 <0>         0.0000
     20 C20         4.5183   -8.6617    2.6779 C.3       1 <0>         0.0000
     21 C21         5.9758   -9.4919    5.1403 C.3       1 <0>         0.0000
     22 C22         5.1520   -8.2058    5.0632 C.3       1 <0>         0.0000
     23 C23         7.4225   -9.2547    4.7271 C.3       1 <0>         0.2800
     24 C24         5.0782   -7.6104    3.6426 C.3       1 <0>         0.0000
     25 O1          8.0146  -10.8198    2.4046 O.3       1 <0>        -0.8167
     26 O2         -1.3014   -0.6098   -2.1336 O.2       1 <0>        -0.5700
     27 O3          2.6287   -7.4120    1.3872 O.2       1 <0>        -0.5700
     28 O4          6.7359  -12.2573    3.9278 O.2       1 <0>        -0.8167
     29 O5          9.1792  -12.4586    3.8215 O.2       1 <0>        -0.8167
     30 O6          8.1372  -10.4782    4.8338 O.3       1 <0>        -0.4637
     31 S1          8.0099  -11.5993    3.6416 S.o2      1 <0>         1.6337
     32 H1          1.7714   -0.2251    1.6135 H         1 <0>         0.1500
     33 H2          0.0003    0.0002   -0.0001 H         1 <0>         0.1500
     34 H3          3.4155   -1.5047    2.7491 H         1 <0>         0.1500
     35 H4         -0.9660   -3.0949   -2.7512 H         1 <0>         0.0000
     36 H5          0.6022   -2.4064   -3.2029 H         1 <0>         0.0000
     37 H6          3.4445   -5.3628   -0.6369 H         1 <0>         0.0000
     38 H7          1.7735   -5.8804   -0.3920 H         1 <0>         0.0000
     39 H8         -0.1524   -3.9705   -0.6847 H         1 <0>         0.0000
     40 H9          0.9430   -4.4864   -1.9618 H         1 <0>         0.0000
     41 H10         4.0144   -3.1796    4.4653 H         1 <0>         0.0000
     42 H11         5.3994   -3.4390    3.3963 H         1 <0>         0.0000
     43 H12         5.8694   -5.3151    4.6450 H         1 <0>         0.0000
     44 H13         4.3104   -5.2623    5.4714 H         1 <0>         0.0000
     45 H14         4.2678   -3.2271    0.9157 H         1 <0>         0.0000
     46 H15         1.3362   -4.1106    1.1841 H         1 <0>         0.0000
     47 H16         2.5535   -4.4515    3.1073 H         1 <0>         0.0000
     48 H17         3.2283   -6.6104    3.9404 H         1 <0>         0.0000
     49 H18         3.2850   -3.6286   -2.0152 H         1 <0>         0.0000
     50 H19         3.7697   -2.2435   -1.0182 H         1 <0>         0.0000
     51 H20         2.6102   -2.0207   -2.3426 H         1 <0>         0.0000
     52 H21         6.2005   -5.2008    2.0953 H         1 <0>         0.0000
     53 H22         5.3355   -5.0069    0.5586 H         1 <0>         0.0000
     54 H23         5.7248   -6.6306    1.1587 H         1 <0>         0.0000
     55 H24         3.4984   -8.9472    2.9564 H         1 <0>         0.0000
     56 H25         5.1358   -9.5663    2.6762 H         1 <0>         0.0000
     57 H26         4.4862   -8.2713    1.6553 H         1 <0>         0.0000
     58 H27         5.9628   -9.9021    6.1564 H         1 <0>         0.0000
     59 H28         5.5368  -10.2638    4.4961 H         1 <0>         0.0000
     60 H29         5.5971   -7.4633    5.7383 H         1 <0>         0.0000
     61 H30         4.1381   -8.4002    5.4353 H         1 <0>         0.0000
     62 H31         7.8983   -8.5154    5.3792 H         1 <0>         0.0000
     63 H32         7.4815   -8.9069    3.6908 H         1 <0>         0.0000
     64 H33         6.0978   -7.3661    3.3127 H         1 <0>         0.0000
@<TRIPOS>BOND
     1    1    3 2
     2    1    4 1
     3    2    4 2
     4    2    5 1
     5    3   12 1
     6    4   16 1
     7    5    7 1
     8    5   26 2
     9    6    8 1
    10    6   17 1
    11    6   27 2
    12    7    9 1
    13    8   13 1
    14    9   16 1
    15   10   11 1
    16   10   14 1
    17   11   15 1
    18   12   13 1
    19   12   14 1
    20   13   16 1
    21   14   17 1
    22   15   17 1
    23   15   24 1
    24   16   18 1
    25   17   19 1
    26   20   24 1
    27   21   22 1
    28   21   23 1
    29   22   24 1
    30   23   30 1
    31   25   31 1
    32   28   31 2
    33   29   31 2
    34   30   31 1
    35    1   32 1
    36    2   33 1
    37    3   34 1
    38    7   35 1
    39    7   36 1
    40    8   37 1
    41    8   38 1
    42    9   39 1
    43    9   40 1
    44   10   41 1
    45   10   42 1
    46   11   43 1
    47   11   44 1
    48   12   45 1
    49   13   46 1
    50   14   47 1
    51   15   48 1
    52   18   49 1
    53   18   50 1
    54   18   51 1
    55   19   52 1
    56   19   53 1
    57   19   54 1
    58   20   55 1
    59   20   56 1
    60   20   57 1
    61   21   58 1
    62   21   59 1
    63   22   60 1
    64   22   61 1
    65   23   62 1
    66   23   63 1
    67   24   64 1

@<TRIPOS>MOLECULE
DKPES_CSD_MMMF_1_31
   64    67     0     0     0
SMALL
USER_CHARGES

@<TRIPOS>ATOM
      1 C1          2.0121   -1.2143    1.2319 C.2       1 <0>        -0.1500
      2 C2          0.3162   -0.9298   -0.4630 C.2       1 <0>        -0.1356
      3 C3          2.9245   -1.9459    1.8863 C.2       1 <0>        -0.2882
      4 C4          1.3270   -1.6661    0.0290 C.2       1 <0>        -0.1382
      5 C5         -0.4261   -1.3440   -1.6772 C.2       1 <0>         0.4946
      6 C6          3.0520   -6.2645    1.2605 C.2       1 <0>         0.4480
      7 C7         -0.0521   -2.6371   -2.3563 C.3       1 <0>         0.0610
      8 C8          2.6249   -5.3856    0.0869 C.3       1 <0>         0.0610
      9 C9          0.6099   -3.6118   -1.3906 C.3       1 <0>         0.0000
     10 C10         4.4784   -3.8939    3.7777 C.3       1 <0>         0.0000
     11 C11         4.7891   -5.2227    4.4865 C.3       1 <0>         0.0000
     12 C12         3.3262   -3.3340    1.4645 C.3       1 <0>         0.1382
     13 C13         2.2273   -3.9675    0.5485 C.3       1 <0>         0.0000
     14 C14         3.5426   -4.2948    2.6428 C.3       1 <0>         0.0000
     15 C15         4.2322   -6.3446    3.5783 C.3       1 <0>         0.0000
     16 C16         1.7910   -2.9885   -0.5996 C.3       1 <0>         0.1382
     17 C17         4.0987   -5.6679    2.1953 C.3       1 <0>         0.0610
     18 C18         2.9581   -2.6968   -1.5724 C.3       1 <0>         0.0000
     19 C19         5.4441   -5.6231    1.4437 C.3       1 <0>         0.0000
     20 C20         4.5183   -8.6617    2.6779 C.3       1 <0>         0.0000
     21 C21         6.1805   -7.5138    5.9587 C.3       1 <0>         0.0000
     22 C22         5.1520   -8.2058    5.0632 C.3       1 <0>         0.0000
     23 C23         6.2405   -8.1544    7.3393 C.3       1 <0>         0.2800
     24 C24         5.0782   -7.6104    3.6426 C.3       1 <0>         0.0000
     25 O1          8.9091   -9.0538    7.8528 O.3       1 <0>        -0.8167
     26 O2         -1.3014   -0.6098   -2.1336 O.2       1 <0>        -0.5700
     27 O3          2.6287   -7.4120    1.3872 O.2       1 <0>        -0.5700
     28 O4          8.3758   -9.6823    5.5415 O.2       1 <0>        -0.8167
     29 O5          8.2204  -11.3561    7.3291 O.2       1 <0>        -0.8167
     30 O6          6.5899   -9.5242    7.1953 O.3       1 <0>        -0.4637
     31 S1          8.1605   -9.9415    6.9643 S.o2      1 <0>         1.6337
     32 H1          1.7714   -0.2251    1.6135 H         1 <0>         0.1500
     33 H2          0.0003    0.0002   -0.0001 H         1 <0>         0.1500
     34 H3          3.4155   -1.5047    2.7491 H         1 <0>         0.1500
     35 H4         -0.9660   -3.0949   -2.7512 H         1 <0>         0.0000
     36 H5          0.6022   -2.4064   -3.2029 H         1 <0>         0.0000
     37 H6          3.4445   -5.3628   -0.6369 H         1 <0>         0.0000
     38 H7          1.7735   -5.8804   -0.3920 H         1 <0>         0.0000
     39 H8         -0.1524   -3.9705   -0.6847 H         1 <0>         0.0000
     40 H9          0.9430   -4.4864   -1.9618 H         1 <0>         0.0000
     41 H10         4.0144   -3.1796    4.4653 H         1 <0>         0.0000
     42 H11         5.3994   -3.4390    3.3963 H         1 <0>         0.0000
     43 H12         5.8694   -5.3151    4.6450 H         1 <0>         0.0000
     44 H13         4.3104   -5.2623    5.4714 H         1 <0>         0.0000
     45 H14         4.2678   -3.2271    0.9157 H         1 <0>         0.0000
     46 H15         1.3362   -4.1106    1.1841 H         1 <0>         0.0000
     47 H16         2.5535   -4.4515    3.1073 H         1 <0>         0.0000
     48 H17         3.2283   -6.6104    3.9404 H         1 <0>         0.0000
     49 H18         3.2850   -3.6286   -2.0152 H         1 <0>         0.0000
     50 H19         3.7697   -2.2435   -1.0182 H         1 <0>         0.0000
     51 H20         2.6102   -2.0207   -2.3426 H         1 <0>         0.0000
     52 H21         6.2005   -5.2008    2.0953 H         1 <0>         0.0000
     53 H22         5.3355   -5.0069    0.5586 H         1 <0>         0.0000
     54 H23         5.7248   -6.6306    1.1587 H         1 <0>         0.0000
     55 H24         3.4984   -8.9472    2.9564 H         1 <0>         0.0000
     56 H25         5.1358   -9.5663    2.6762 H         1 <0>         0.0000
     57 H26         4.4862   -8.2713    1.6553 H         1 <0>         0.0000
     58 H27         7.1787   -7.5543    5.5083 H         1 <0>         0.0000
     59 H28         5.9383   -6.4490    6.0634 H         1 <0>         0.0000
     60 H29         4.1645   -8.1244    5.5357 H         1 <0>         0.0000
     61 H30         5.3837   -9.2768    5.0032 H         1 <0>         0.0000
     62 H31         5.2690   -8.0935    7.8401 H         1 <0>         0.0000
     63 H32         6.9954   -7.6670    7.9644 H         1 <0>         0.0000
     64 H33         6.0978   -7.3661    3.3127 H         1 <0>         0.0000
@<TRIPOS>BOND
     1    1    3 2
     2    1    4 1
     3    2    4 2
     4    2    5 1
     5    3   12 1
     6    4   16 1
     7    5    7 1
     8    5   26 2
     9    6    8 1
    10    6   17 1
    11    6   27 2
    12    7    9 1
    13    8   13 1
    14    9   16 1
    15   10   11 1
    16   10   14 1
    17   11   15 1
    18   12   13 1
    19   12   14 1
    20   13   16 1
    21   14   17 1
    22   15   17 1
    23   15   24 1
    24   16   18 1
    25   17   19 1
    26   20   24 1
    27   21   22 1
    28   21   23 1
    29   22   24 1
    30   23   30 1
    31   25   31 1
    32   28   31 2
    33   29   31 2
    34   30   31 1
    35    1   32 1
    36    2   33 1
    37    3   34 1
    38    7   35 1
    39    7   36 1
    40    8   37 1
    41    8   38 1
    42    9   39 1
    43    9   40 1
    44   10   41 1
    45   10   42 1
    46   11   43 1
    47   11   44 1
    48   12   45 1
    49   13   46 1
    50   14   47 1
    51   15   48 1
    52   18   49 1
    53   18   50 1
    54   18   51 1
    55   19   52 1
    56   19   53 1
    57   19   54 1
    58   20   55 1
    59   20   56 1
    60   20   57 1
    61   21   58 1
    62   21   59 1
    63   22   60 1
    64   22   61 1
    65   23   62 1
    66   23   63 1
    67   24   64 1

@<TRIPOS>MOLECULE
DKPES_CSD_MMMF_1_18
   64    67     0     0     0
SMALL
USER_CHARGES

@<TRIPOS>ATOM
      1 C1          2.0121   -1.2143    1.2319 C.2       1 <0>        -0.1500
      2 C2          0.3162   -0.9298   -0.4630 C.2       1 <0>        -0.1356
      3 C3          2.9245   -1.9459    1.8863 C.2       1 <0>        -0.2882
      4 C4          1.3270   -1.6661    0.0290 C.2       1 <0>        -0.1382
      5 C5         -0.4261   -1.3440   -1.6772 C.2       1 <0>         0.4946
      6 C6          3.0520   -6.2645    1.2605 C.2       1 <0>         0.4480
      7 C7         -0.0521   -2.6371   -2.3563 C.3       1 <0>         0.0610
      8 C8          2.6249   -5.3856    0.0869 C.3       1 <0>         0.0610
      9 C9          0.6099   -3.6118   -1.3906 C.3       1 <0>         0.0000
     10 C10         4.4784   -3.8939    3.7777 C.3       1 <0>         0.0000
     11 C11         4.7891   -5.2227    4.4865 C.3       1 <0>         0.0000
     12 C12         3.3262   -3.3340    1.4645 C.3       1 <0>         0.1382
     13 C13         2.2273   -3.9675    0.5485 C.3       1 <0>         0.0000
     14 C14         3.5426   -4.2948    2.6428 C.3       1 <0>         0.0000
     15 C15         4.2322   -6.3446    3.5783 C.3       1 <0>         0.0000
     16 C16         1.7910   -2.9885   -0.5996 C.3       1 <0>         0.1382
     17 C17         4.0987   -5.6679    2.1953 C.3       1 <0>         0.0610
     18 C18         2.9581   -2.6968   -1.5724 C.3       1 <0>         0.0000
     19 C19         5.4441   -5.6231    1.4437 C.3       1 <0>         0.0000
     20 C20         4.5183   -8.6617    2.6779 C.3       1 <0>         0.0000
     21 C21         5.9758   -9.4919    5.1403 C.3       1 <0>         0.0000
     22 C22         5.1520   -8.2058    5.0632 C.3       1 <0>         0.0000
     23 C23         7.4225   -9.2547    4.7271 C.3       1 <0>         0.2800
     24 C24         5.0782   -7.6104    3.6426 C.3       1 <0>         0.0000
     25 O1          9.1591  -10.0217    6.8694 O.3       1 <0>        -0.8167
     26 O2         -1.3014   -0.6098   -2.1336 O.2       1 <0>        -0.5700
     27 O3          2.6287   -7.4120    1.3872 O.2       1 <0>        -0.5700
     28 O4          7.2927   -8.7830    7.8713 O.2       1 <0>        -0.8167
     29 O5          9.4353   -7.6542    7.4762 O.2       1 <0>        -0.8167
     30 O6          7.9926   -8.2799    5.5896 O.3       1 <0>        -0.4637
     31 S1          8.5203   -8.7233    7.0793 S.o2      1 <0>         1.6337
     32 H1          1.7714   -0.2251    1.6135 H         1 <0>         0.1500
     33 H2          0.0003    0.0002   -0.0001 H         1 <0>         0.1500
     34 H3          3.4155   -1.5047    2.7491 H         1 <0>         0.1500
     35 H4         -0.9660   -3.0949   -2.7512 H         1 <0>         0.0000
     36 H5          0.6022   -2.4064   -3.2029 H         1 <0>         0.0000
     37 H6          3.4445   -5.3628   -0.6369 H         1 <0>         0.0000
     38 H7          1.7735   -5.8804   -0.3920 H         1 <0>         0.0000
     39 H8         -0.1524   -3.9705   -0.6847 H         1 <0>         0.0000
     40 H9          0.9430   -4.4864   -1.9618 H         1 <0>         0.0000
     41 H10         4.0144   -3.1796    4.4653 H         1 <0>         0.0000
     42 H11         5.3994   -3.4390    3.3963 H         1 <0>         0.0000
     43 H12         5.8694   -5.3151    4.6450 H         1 <0>         0.0000
     44 H13         4.3104   -5.2623    5.4714 H         1 <0>         0.0000
     45 H14         4.2678   -3.2271    0.9157 H         1 <0>         0.0000
     46 H15         1.3362   -4.1106    1.1841 H         1 <0>         0.0000
     47 H16         2.5535   -4.4515    3.1073 H         1 <0>         0.0000
     48 H17         3.2283   -6.6104    3.9404 H         1 <0>         0.0000
     49 H18         3.2850   -3.6286   -2.0152 H         1 <0>         0.0000
     50 H19         3.7697   -2.2435   -1.0182 H         1 <0>         0.0000
     51 H20         2.6102   -2.0207   -2.3426 H         1 <0>         0.0000
     52 H21         6.2005   -5.2008    2.0953 H         1 <0>         0.0000
     53 H22         5.3355   -5.0069    0.5586 H         1 <0>         0.0000
     54 H23         5.7248   -6.6306    1.1587 H         1 <0>         0.0000
     55 H24         3.4984   -8.9472    2.9564 H         1 <0>         0.0000
     56 H25         5.1358   -9.5663    2.6762 H         1 <0>         0.0000
     57 H26         4.4862   -8.2713    1.6553 H         1 <0>         0.0000
     58 H27         5.9628   -9.9021    6.1564 H         1 <0>         0.0000
     59 H28         5.5368  -10.2638    4.4961 H         1 <0>         0.0000
     60 H29         5.5971   -7.4633    5.7383 H         1 <0>         0.0000
     61 H30         4.1381   -8.4002    5.4353 H         1 <0>         0.0000
     62 H31         7.4787   -8.8849    3.6983 H         1 <0>         0.0000
     63 H32         8.0085  -10.1757    4.8078 H         1 <0>         0.0000
     64 H33         6.0978   -7.3661    3.3127 H         1 <0>         0.0000
@<TRIPOS>BOND
     1    1    3 2
     2    1    4 1
     3    2    4 2
     4    2    5 1
     5    3   12 1
     6    4   16 1
     7    5    7 1
     8    5   26 2
     9    6    8 1
    10    6   17 1
    11    6   27 2
    12    7    9 1
    13    8   13 1
    14    9   16 1
    15   10   11 1
    16   10   14 1
    17   11   15 1
    18   12   13 1
    19   12   14 1
    20   13   16 1
    21   14   17 1
    22   15   17 1
    23   15   24 1
    24   16   18 1
    25   17   19 1
    26   20   24 1
    27   21   22 1
    28   21   23 1
    29   22   24 1
    30   23   30 1
    31   25   31 1
    32   28   31 2
    33   29   31 2
    34   30   31 1
    35    1   32 1
    36    2   33 1
    37    3   34 1
    38    7   35 1
    39    7   36 1
    40    8   37 1
    41    8   38 1
    42    9   39 1
    43    9   40 1
    44   10   41 1
    45   10   42 1
    46   11   43 1
    47   11   44 1
    48   12   45 1
    49   13   46 1
    50   14   47 1
    51   15   48 1
    52   18   49 1
    53   18   50 1
    54   18   51 1
    55   19   52 1
    56   19   53 1
    57   19   54 1
    58   20   55 1
    59   20   56 1
    60   20   57 1
    61   21   58 1
    62   21   59 1
    63   22   60 1
    64   22   61 1
    65   23   62 1
    66   23   63 1
    67   24   64 1

@<TRIPOS>MOLECULE
DKPES_CSD_MMMF_1_14
   64    67     0     0     0
SMALL
USER_CHARGES

@<TRIPOS>ATOM
      1 C1          2.0121   -1.2143    1.2319 C.2       1 <0>        -0.1500
      2 C2          0.3162   -0.9298   -0.4630 C.2       1 <0>        -0.1356
      3 C3          2.9245   -1.9459    1.8863 C.2       1 <0>        -0.2882
      4 C4          1.3270   -1.6661    0.0290 C.2       1 <0>        -0.1382
      5 C5         -0.4261   -1.3440   -1.6772 C.2       1 <0>         0.4946
      6 C6          3.0520   -6.2645    1.2605 C.2       1 <0>         0.4480
      7 C7         -0.0521   -2.6371   -2.3563 C.3       1 <0>         0.0610
      8 C8          2.6249   -5.3856    0.0869 C.3       1 <0>         0.0610
      9 C9          0.6099   -3.6118   -1.3906 C.3       1 <0>         0.0000
     10 C10         4.4784   -3.8939    3.7777 C.3       1 <0>         0.0000
     11 C11         4.7891   -5.2227    4.4865 C.3       1 <0>         0.0000
     12 C12         3.3262   -3.3340    1.4645 C.3       1 <0>         0.1382
     13 C13         2.2273   -3.9675    0.5485 C.3       1 <0>         0.0000
     14 C14         3.5426   -4.2948    2.6428 C.3       1 <0>         0.0000
     15 C15         4.2322   -6.3446    3.5783 C.3       1 <0>         0.0000
     16 C16         1.7910   -2.9885   -0.5996 C.3       1 <0>         0.1382
     17 C17         4.0987   -5.6679    2.1953 C.3       1 <0>         0.0610
     18 C18         2.9581   -2.6968   -1.5724 C.3       1 <0>         0.0000
     19 C19         5.4441   -5.6231    1.4437 C.3       1 <0>         0.0000
     20 C20         4.5183   -8.6617    2.6779 C.3       1 <0>         0.0000
     21 C21         5.9758   -9.4919    5.1403 C.3       1 <0>         0.0000
     22 C22         5.1520   -8.2058    5.0632 C.3       1 <0>         0.0000
     23 C23         7.4225   -9.2547    4.7271 C.3       1 <0>         0.2800
     24 C24         5.0782   -7.6104    3.6426 C.3       1 <0>         0.0000
     25 O1          9.1421   -9.7641    6.9580 O.3       1 <0>        -0.8167
     26 O2         -1.3014   -0.6098   -2.1336 O.2       1 <0>        -0.5700
     27 O3          2.6287   -7.4120    1.3872 O.2       1 <0>        -0.5700
     28 O4          9.7294  -11.9333    5.9726 O.2       1 <0>        -0.8167
     29 O5          7.4950  -11.5904    6.9273 O.2       1 <0>        -0.8167
     30 O6          8.1372  -10.4782    4.8338 O.3       1 <0>        -0.4637
     31 S1          8.6688  -10.9823    6.3026 S.o2      1 <0>         1.6337
     32 H1          1.7714   -0.2251    1.6135 H         1 <0>         0.1500
     33 H2          0.0003    0.0002   -0.0001 H         1 <0>         0.1500
     34 H3          3.4155   -1.5047    2.7491 H         1 <0>         0.1500
     35 H4         -0.9660   -3.0949   -2.7512 H         1 <0>         0.0000
     36 H5          0.6022   -2.4064   -3.2029 H         1 <0>         0.0000
     37 H6          3.4445   -5.3628   -0.6369 H         1 <0>         0.0000
     38 H7          1.7735   -5.8804   -0.3920 H         1 <0>         0.0000
     39 H8         -0.1524   -3.9705   -0.6847 H         1 <0>         0.0000
     40 H9          0.9430   -4.4864   -1.9618 H         1 <0>         0.0000
     41 H10         4.0144   -3.1796    4.4653 H         1 <0>         0.0000
     42 H11         5.3994   -3.4390    3.3963 H         1 <0>         0.0000
     43 H12         5.8694   -5.3151    4.6450 H         1 <0>         0.0000
     44 H13         4.3104   -5.2623    5.4714 H         1 <0>         0.0000
     45 H14         4.2678   -3.2271    0.9157 H         1 <0>         0.0000
     46 H15         1.3362   -4.1106    1.1841 H         1 <0>         0.0000
     47 H16         2.5535   -4.4515    3.1073 H         1 <0>         0.0000
     48 H17         3.2283   -6.6104    3.9404 H         1 <0>         0.0000
     49 H18         3.2850   -3.6286   -2.0152 H         1 <0>         0.0000
     50 H19         3.7697   -2.2435   -1.0182 H         1 <0>         0.0000
     51 H20         2.6102   -2.0207   -2.3426 H         1 <0>         0.0000
     52 H21         6.2005   -5.2008    2.0953 H         1 <0>         0.0000
     53 H22         5.3355   -5.0069    0.5586 H         1 <0>         0.0000
     54 H23         5.7248   -6.6306    1.1587 H         1 <0>         0.0000
     55 H24         3.4984   -8.9472    2.9564 H         1 <0>         0.0000
     56 H25         5.1358   -9.5663    2.6762 H         1 <0>         0.0000
     57 H26         4.4862   -8.2713    1.6553 H         1 <0>         0.0000
     58 H27         5.9628   -9.9021    6.1564 H         1 <0>         0.0000
     59 H28         5.5368  -10.2638    4.4961 H         1 <0>         0.0000
     60 H29         5.5971   -7.4633    5.7383 H         1 <0>         0.0000
     61 H30         4.1381   -8.4002    5.4353 H         1 <0>         0.0000
     62 H31         7.8983   -8.5154    5.3792 H         1 <0>         0.0000
     63 H32         7.4815   -8.9069    3.6908 H         1 <0>         0.0000
     64 H33         6.0978   -7.3661    3.3127 H         1 <0>         0.0000
@<TRIPOS>BOND
     1    1    3 2
     2    1    4 1
     3    2    4 2
     4    2    5 1
     5    3   12 1
     6    4   16 1
     7    5    7 1
     8    5   26 2
     9    6    8 1
    10    6   17 1
    11    6   27 2
    12    7    9 1
    13    8   13 1
    14    9   16 1
    15   10   11 1
    16   10   14 1
    17   11   15 1
    18   12   13 1
    19   12   14 1
    20   13   16 1
    21   14   17 1
    22   15   17 1
    23   15   24 1
    24   16   18 1
    25   17   19 1
    26   20   24 1
    27   21   22 1
    28   21   23 1
    29   22   24 1
    30   23   30 1
    31   25   31 1
    32   28   31 2
    33   29   31 2
    34   30   31 1
    35    1   32 1
    36    2   33 1
    37    3   34 1
    38    7   35 1
    39    7   36 1
    40    8   37 1
    41    8   38 1
    42    9   39 1
    43    9   40 1
    44   10   41 1
    45   10   42 1
    46   11   43 1
    47   11   44 1
    48   12   45 1
    49   13   46 1
    50   14   47 1
    51   15   48 1
    52   18   49 1
    53   18   50 1
    54   18   51 1
    55   19   52 1
    56   19   53 1
    57   19   54 1
    58   20   55 1
    59   20   56 1
    60   20   57 1
    61   21   58 1
    62   21   59 1
    63   22   60 1
    64   22   61 1
    65   23   62 1
    66   23   63 1
    67   24   64 1

@<TRIPOS>MOLECULE
DKPES_CSD_MMMF_1_18
   64    67     0     0     0
SMALL
USER_CHARGES

@<TRIPOS>ATOM
      1 C1          2.0121   -1.2143    1.2319 C.2       1 <0>        -0.1500
      2 C2          0.3162   -0.9298   -0.4630 C.2       1 <0>        -0.1356
      3 C3          2.9245   -1.9459    1.8863 C.2       1 <0>        -0.2882
      4 C4          1.3270   -1.6661    0.0290 C.2       1 <0>        -0.1382
      5 C5         -0.4261   -1.3440   -1.6772 C.2       1 <0>         0.4946
      6 C6          3.0520   -6.2645    1.2605 C.2       1 <0>         0.4480
      7 C7         -0.0521   -2.6371   -2.3563 C.3       1 <0>         0.0610
      8 C8          2.6249   -5.3856    0.0869 C.3       1 <0>         0.0610
      9 C9          0.6099   -3.6118   -1.3906 C.3       1 <0>         0.0000
     10 C10         4.4784   -3.8939    3.7777 C.3       1 <0>         0.0000
     11 C11         4.7891   -5.2227    4.4865 C.3       1 <0>         0.0000
     12 C12         3.3262   -3.3340    1.4645 C.3       1 <0>         0.1382
     13 C13         2.2273   -3.9675    0.5485 C.3       1 <0>         0.0000
     14 C14         3.5426   -4.2948    2.6428 C.3       1 <0>         0.0000
     15 C15         4.2322   -6.3446    3.5783 C.3       1 <0>         0.0000
     16 C16         1.7910   -2.9885   -0.5996 C.3       1 <0>         0.1382
     17 C17         4.0987   -5.6679    2.1953 C.3       1 <0>         0.0610
     18 C18         2.9581   -2.6968   -1.5724 C.3       1 <0>         0.0000
     19 C19         5.4441   -5.6231    1.4437 C.3       1 <0>         0.0000
     20 C20         4.5183   -8.6617    2.6779 C.3       1 <0>         0.0000
     21 C21         5.9758   -9.4919    5.1403 C.3       1 <0>         0.0000
     22 C22         5.1520   -8.2058    5.0632 C.3       1 <0>         0.0000
     23 C23         7.4225   -9.2547    4.7271 C.3       1 <0>         0.2800
     24 C24         5.0782   -7.6104    3.6426 C.3       1 <0>         0.0000
     25 O1          9.1591  -10.0217    6.8694 O.3       1 <0>        -0.8167
     26 O2         -1.3014   -0.6098   -2.1336 O.2       1 <0>        -0.5700
     27 O3          2.6287   -7.4120    1.3872 O.2       1 <0>        -0.5700
     28 O4          7.2927   -8.7830    7.8713 O.2       1 <0>        -0.8167
     29 O5          9.4353   -7.6542    7.4762 O.2       1 <0>        -0.8167
     30 O6          7.9926   -8.2799    5.5896 O.3       1 <0>        -0.4637
     31 S1          8.5203   -8.7233    7.0793 S.o2      1 <0>         1.6337
     32 H1          1.7714   -0.2251    1.6135 H         1 <0>         0.1500
     33 H2          0.0003    0.0002   -0.0001 H         1 <0>         0.1500
     34 H3          3.4155   -1.5047    2.7491 H         1 <0>         0.1500
     35 H4         -0.9660   -3.0949   -2.7512 H         1 <0>         0.0000
     36 H5          0.6022   -2.4064   -3.2029 H         1 <0>         0.0000
     37 H6          3.4445   -5.3628   -0.6369 H         1 <0>         0.0000
     38 H7          1.7735   -5.8804   -0.3920 H         1 <0>         0.0000
     39 H8         -0.1524   -3.9705   -0.6847 H         1 <0>         0.0000
     40 H9          0.9430   -4.4864   -1.9618 H         1 <0>         0.0000
     41 H10         4.0144   -3.1796    4.4653 H         1 <0>         0.0000
     42 H11         5.3994   -3.4390    3.3963 H         1 <0>         0.0000
     43 H12         5.8694   -5.3151    4.6450 H         1 <0>         0.0000
     44 H13         4.3104   -5.2623    5.4714 H         1 <0>         0.0000
     45 H14         4.2678   -3.2271    0.9157 H         1 <0>         0.0000
     46 H15         1.3362   -4.1106    1.1841 H         1 <0>         0.0000
     47 H16         2.5535   -4.4515    3.1073 H         1 <0>         0.0000
     48 H17         3.2283   -6.6104    3.9404 H         1 <0>         0.0000
     49 H18         3.2850   -3.6286   -2.0152 H         1 <0>         0.0000
     50 H19         3.7697   -2.2435   -1.0182 H         1 <0>         0.0000
     51 H20         2.6102   -2.0207   -2.3426 H         1 <0>         0.0000
     52 H21         6.2005   -5.2008    2.0953 H         1 <0>         0.0000
     53 H22         5.3355   -5.0069    0.5586 H         1 <0>         0.0000
     54 H23         5.7248   -6.6306    1.1587 H         1 <0>         0.0000
     55 H24         3.4984   -8.9472    2.9564 H         1 <0>         0.0000
     56 H25         5.1358   -9.5663    2.6762 H         1 <0>         0.0000
     57 H26         4.4862   -8.2713    1.6553 H         1 <0>         0.0000
     58 H27         5.9628   -9.9021    6.1564 H         1 <0>         0.0000
     59 H28         5.5368  -10.2638    4.4961 H         1 <0>         0.0000
     60 H29         5.5971   -7.4633    5.7383 H         1 <0>         0.0000
     61 H30         4.1381   -8.4002    5.4353 H         1 <0>         0.0000
     62 H31         7.4787   -8.8849    3.6983 H         1 <0>         0.0000
     63 H32         8.0085  -10.1757    4.8078 H         1 <0>         0.0000
     64 H33         6.0978   -7.3661    3.3127 H         1 <0>         0.0000
@<TRIPOS>BOND
     1    1    3 2
     2    1    4 1
     3    2    4 2
     4    2    5 1
     5    3   12 1
     6    4   16 1
     7    5    7 1
     8    5   26 2
     9    6    8 1
    10    6   17 1
    11    6   27 2
    12    7    9 1
    13    8   13 1
    14    9   16 1
    15   10   11 1
    16   10   14 1
    17   11   15 1
    18   12   13 1
    19   12   14 1
    20   13   16 1
    21   14   17 1
    22   15   17 1
    23   15   24 1
    24   16   18 1
    25   17   19 1
    26   20   24 1
    27   21   22 1
    28   21   23 1
    29   22   24 1
    30   23   30 1
    31   25   31 1
    32   28   31 2
    33   29   31 2
    34   30   31 1
    35    1   32 1
    36    2   33 1
    37    3   34 1
    38    7   35 1
    39    7   36 1
    40    8   37 1
    41    8   38 1
    42    9   39 1
    43    9   40 1
    44   10   41 1
    45   10   42 1
    46   11   43 1
    47   11   44 1
    48   12   45 1
    49   13   46 1
    50   14   47 1
    51   15   48 1
    52   18   49 1
    53   18   50 1
    54   18   51 1
    55   19   52 1
    56   19   53 1
    57   19   54 1
    58   20   55 1
    59   20   56 1
    60   20   57 1
    61   21   58 1
    62   21   59 1
    63   22   60 1
    64   22   61 1
    65   23   62 1
    66   23   63 1
    67   24   64 1

@<TRIPOS>MOLECULE
DKPES_CSD_MMMF_1_15
   64    67     0     0     0
SMALL
USER_CHARGES

@<TRIPOS>ATOM
      1 C1          2.0121   -1.2143    1.2319 C.2       1 <0>        -0.1500
      2 C2          0.3162   -0.9298   -0.4630 C.2       1 <0>        -0.1356
      3 C3          2.9245   -1.9459    1.8863 C.2       1 <0>        -0.2882
      4 C4          1.3270   -1.6661    0.0290 C.2       1 <0>        -0.1382
      5 C5         -0.4261   -1.3440   -1.6772 C.2       1 <0>         0.4946
      6 C6          3.0520   -6.2645    1.2605 C.2       1 <0>         0.4480
      7 C7         -0.0521   -2.6371   -2.3563 C.3       1 <0>         0.0610
      8 C8          2.6249   -5.3856    0.0869 C.3       1 <0>         0.0610
      9 C9          0.6099   -3.6118   -1.3906 C.3       1 <0>         0.0000
     10 C10         4.4784   -3.8939    3.7777 C.3       1 <0>         0.0000
     11 C11         4.7891   -5.2227    4.4865 C.3       1 <0>         0.0000
     12 C12         3.3262   -3.3340    1.4645 C.3       1 <0>         0.1382
     13 C13         2.2273   -3.9675    0.5485 C.3       1 <0>         0.0000
     14 C14         3.5426   -4.2948    2.6428 C.3       1 <0>         0.0000
     15 C15         4.2322   -6.3446    3.5783 C.3       1 <0>         0.0000
     16 C16         1.7910   -2.9885   -0.5996 C.3       1 <0>         0.1382
     17 C17         4.0987   -5.6679    2.1953 C.3       1 <0>         0.0610
     18 C18         2.9581   -2.6968   -1.5724 C.3       1 <0>         0.0000
     19 C19         5.4441   -5.6231    1.4437 C.3       1 <0>         0.0000
     20 C20         4.6826   -8.4407    4.8686 C.3       1 <0>         0.0000
     21 C21         7.4569   -8.5116    3.2985 C.3       1 <0>         0.0000
     22 C22         6.5907   -7.3138    3.6905 C.3       1 <0>         0.0000
     23 C23         8.9411   -8.1821    3.3905 C.3       1 <0>         0.2800
     24 C24         5.0782   -7.6104    3.6426 C.3       1 <0>         0.0000
     25 O1         10.7194   -7.0597    6.5444 O.3       1 <0>        -0.8167
     26 O2         -1.3014   -0.6098   -2.1336 O.2       1 <0>        -0.5700
     27 O3          2.6287   -7.4120    1.3872 O.2       1 <0>        -0.5700
     28 O4         11.0607   -6.2402    4.2568 O.2       1 <0>        -0.8167
     29 O5         11.5738   -8.5760    4.8066 O.2       1 <0>        -0.8167
     30 O6          9.2450   -7.8001    4.7250 O.3       1 <0>        -0.4637
     31 S1         10.7834   -7.3867    5.1208 S.o2      1 <0>         1.6337
     32 H1          1.7714   -0.2251    1.6135 H         1 <0>         0.1500
     33 H2          0.0003    0.0002   -0.0001 H         1 <0>         0.1500
     34 H3          3.4155   -1.5047    2.7491 H         1 <0>         0.1500
     35 H4         -0.9660   -3.0949   -2.7512 H         1 <0>         0.0000
     36 H5          0.6022   -2.4064   -3.2029 H         1 <0>         0.0000
     37 H6          3.4445   -5.3628   -0.6369 H         1 <0>         0.0000
     38 H7          1.7735   -5.8804   -0.3920 H         1 <0>         0.0000
     39 H8         -0.1524   -3.9705   -0.6847 H         1 <0>         0.0000
     40 H9          0.9430   -4.4864   -1.9618 H         1 <0>         0.0000
     41 H10         4.0144   -3.1796    4.4653 H         1 <0>         0.0000
     42 H11         5.3994   -3.4390    3.3963 H         1 <0>         0.0000
     43 H12         5.8694   -5.3151    4.6450 H         1 <0>         0.0000
     44 H13         4.3104   -5.2623    5.4714 H         1 <0>         0.0000
     45 H14         4.2678   -3.2271    0.9157 H         1 <0>         0.0000
     46 H15         1.3362   -4.1106    1.1841 H         1 <0>         0.0000
     47 H16         2.5535   -4.4515    3.1073 H         1 <0>         0.0000
     48 H17         3.2283   -6.6104    3.9404 H         1 <0>         0.0000
     49 H18         3.2850   -3.6286   -2.0152 H         1 <0>         0.0000
     50 H19         3.7697   -2.2435   -1.0182 H         1 <0>         0.0000
     51 H20         2.6102   -2.0207   -2.3426 H         1 <0>         0.0000
     52 H21         6.2005   -5.2008    2.0953 H         1 <0>         0.0000
     53 H22         5.3355   -5.0069    0.5586 H         1 <0>         0.0000
     54 H23         5.7248   -6.6306    1.1587 H         1 <0>         0.0000
     55 H24         4.8689   -7.8872    5.7950 H         1 <0>         0.0000
     56 H25         5.2494   -9.3769    4.9126 H         1 <0>         0.0000
     57 H26         3.6169   -8.6907    4.8400 H         1 <0>         0.0000
     58 H27         7.2468   -9.3719    3.9440 H         1 <0>         0.0000
     59 H28         7.2199   -8.8342    2.2771 H         1 <0>         0.0000
     60 H29         6.8129   -6.4825    3.0088 H         1 <0>         0.0000
     61 H30         6.8694   -6.9772    4.6971 H         1 <0>         0.0000
     62 H31         9.1987   -7.3530    2.7237 H         1 <0>         0.0000
     63 H32         9.5521   -9.0523    3.1303 H         1 <0>         0.0000
     64 H33         4.8690   -8.2160    2.7494 H         1 <0>         0.0000
@<TRIPOS>BOND
     1    1    3 2
     2    1    4 1
     3    2    4 2
     4    2    5 1
     5    3   12 1
     6    4   16 1
     7    5    7 1
     8    5   26 2
     9    6    8 1
    10    6   17 1
    11    6   27 2
    12    7    9 1
    13    8   13 1
    14    9   16 1
    15   10   11 1
    16   10   14 1
    17   11   15 1
    18   12   13 1
    19   12   14 1
    20   13   16 1
    21   14   17 1
    22   15   17 1
    23   15   24 1
    24   16   18 1
    25   17   19 1
    26   20   24 1
    27   21   22 1
    28   21   23 1
    29   22   24 1
    30   23   30 1
    31   25   31 1
    32   28   31 2
    33   29   31 2
    34   30   31 1
    35    1   32 1
    36    2   33 1
    37    3   34 1
    38    7   35 1
    39    7   36 1
    40    8   37 1
    41    8   38 1
    42    9   39 1
    43    9   40 1
    44   10   41 1
    45   10   42 1
    46   11   43 1
    47   11   44 1
    48   12   45 1
    49   13   46 1
    50   14   47 1
    51   15   48 1
    52   18   49 1
    53   18   50 1
    54   18   51 1
    55   19   52 1
    56   19   53 1
    57   19   54 1
    58   20   55 1
    59   20   56 1
    60   20   57 1
    61   21   58 1
    62   21   59 1
    63   22   60 1
    64   22   61 1
    65   23   62 1
    66   23   63 1
    67   24   64 1

@<TRIPOS>MOLECULE
DKPES_CSD_MMMF_1_0
   64    67     0     0     0
SMALL
USER_CHARGES

@<TRIPOS>ATOM
      1 C1          2.0121   -1.2143    1.2319 C.2       1 <0>        -0.1500
      2 C2          0.3162   -0.9298   -0.4630 C.2       1 <0>        -0.1356
      3 C3          2.9245   -1.9459    1.8863 C.2       1 <0>        -0.2882
      4 C4          1.3270   -1.6661    0.0290 C.2       1 <0>        -0.1382
      5 C5         -0.4261   -1.3440   -1.6772 C.2       1 <0>         0.4946
      6 C6          3.0520   -6.2645    1.2605 C.2       1 <0>         0.4480
      7 C7         -0.0521   -2.6371   -2.3563 C.3       1 <0>         0.0610
      8 C8          2.6249   -5.3856    0.0869 C.3       1 <0>         0.0610
      9 C9          0.6099   -3.6118   -1.3906 C.3       1 <0>         0.0000
     10 C10         4.4784   -3.8939    3.7777 C.3       1 <0>         0.0000
     11 C11         4.7891   -5.2227    4.4865 C.3       1 <0>         0.0000
     12 C12         3.3262   -3.3340    1.4645 C.3       1 <0>         0.1382
     13 C13         2.2273   -3.9675    0.5485 C.3       1 <0>         0.0000
     14 C14         3.5426   -4.2948    2.6428 C.3       1 <0>         0.0000
     15 C15         4.2322   -6.3446    3.5783 C.3       1 <0>         0.0000
     16 C16         1.7910   -2.9885   -0.5996 C.3       1 <0>         0.1382
     17 C17         4.0987   -5.6679    2.1953 C.3       1 <0>         0.0610
     18 C18         2.9581   -2.6968   -1.5724 C.3       1 <0>         0.0000
     19 C19         5.4441   -5.6231    1.4437 C.3       1 <0>         0.0000
     20 C20         4.5183   -8.6617    2.6779 C.3       1 <0>         0.0000
     21 C21         6.3229   -9.1702    5.2571 C.3       1 <0>         0.0000
     22 C22         5.1520   -8.2058    5.0632 C.3       1 <0>         0.0000
     23 C23         6.3373   -9.7563    6.6629 C.3       1 <0>         0.2800
     24 C24         5.0782   -7.6104    3.6426 C.3       1 <0>         0.0000
     25 O1          8.8862  -12.2533    7.9425 O.3       1 <0>        -0.8167
     26 O2         -1.3014   -0.6098   -2.1336 O.2       1 <0>        -0.5700
     27 O3          2.6287   -7.4120    1.3872 O.2       1 <0>        -0.5700
     28 O4          6.4736  -12.2095    8.3883 O.2       1 <0>        -0.8167
     29 O5          7.8939  -10.3682    9.1717 O.2       1 <0>        -0.8167
     30 O6          7.4346  -10.6521    6.7758 O.3       1 <0>        -0.4637
     31 S1          7.6994  -11.4369    8.1929 S.o2      1 <0>         1.6337
     32 H1          1.7714   -0.2251    1.6135 H         1 <0>         0.1500
     33 H2          0.0003    0.0002   -0.0001 H         1 <0>         0.1500
     34 H3          3.4155   -1.5047    2.7491 H         1 <0>         0.1500
     35 H4         -0.9660   -3.0949   -2.7512 H         1 <0>         0.0000
     36 H5          0.6022   -2.4064   -3.2029 H         1 <0>         0.0000
     37 H6          3.4445   -5.3628   -0.6369 H         1 <0>         0.0000
     38 H7          1.7735   -5.8804   -0.3920 H         1 <0>         0.0000
     39 H8         -0.1524   -3.9705   -0.6847 H         1 <0>         0.0000
     40 H9          0.9430   -4.4864   -1.9618 H         1 <0>         0.0000
     41 H10         4.0144   -3.1796    4.4653 H         1 <0>         0.0000
     42 H11         5.3994   -3.4390    3.3963 H         1 <0>         0.0000
     43 H12         5.8694   -5.3151    4.6450 H         1 <0>         0.0000
     44 H13         4.3104   -5.2623    5.4714 H         1 <0>         0.0000
     45 H14         4.2678   -3.2271    0.9157 H         1 <0>         0.0000
     46 H15         1.3362   -4.1106    1.1841 H         1 <0>         0.0000
     47 H16         2.5535   -4.4515    3.1073 H         1 <0>         0.0000
     48 H17         3.2283   -6.6104    3.9404 H         1 <0>         0.0000
     49 H18         3.2850   -3.6286   -2.0152 H         1 <0>         0.0000
     50 H19         3.7697   -2.2435   -1.0182 H         1 <0>         0.0000
     51 H20         2.6102   -2.0207   -2.3426 H         1 <0>         0.0000
     52 H21         6.2005   -5.2008    2.0953 H         1 <0>         0.0000
     53 H22         5.3355   -5.0069    0.5586 H         1 <0>         0.0000
     54 H23         5.7248   -6.6306    1.1587 H         1 <0>         0.0000
     55 H24         3.4984   -8.9472    2.9564 H         1 <0>         0.0000
     56 H25         5.1358   -9.5663    2.6762 H         1 <0>         0.0000
     57 H26         4.4862   -8.2713    1.6553 H         1 <0>         0.0000
     58 H27         6.2743   -9.9919    4.5337 H         1 <0>         0.0000
     59 H28         7.2737   -8.6565    5.0689 H         1 <0>         0.0000
     60 H29         5.2482   -7.3872    5.7883 H         1 <0>         0.0000
     61 H30         4.2124   -8.7226    5.2963 H         1 <0>         0.0000
     62 H31         5.4142  -10.3091    6.8645 H         1 <0>         0.0000
     63 H32         6.4529   -8.9686    7.4141 H         1 <0>         0.0000
     64 H33         6.0978   -7.3661    3.3127 H         1 <0>         0.0000
@<TRIPOS>BOND
     1    1    3 2
     2    1    4 1
     3    2    4 2
     4    2    5 1
     5    3   12 1
     6    4   16 1
     7    5    7 1
     8    5   26 2
     9    6    8 1
    10    6   17 1
    11    6   27 2
    12    7    9 1
    13    8   13 1
    14    9   16 1
    15   10   11 1
    16   10   14 1
    17   11   15 1
    18   12   13 1
    19   12   14 1
    20   13   16 1
    21   14   17 1
    22   15   17 1
    23   15   24 1
    24   16   18 1
    25   17   19 1
    26   20   24 1
    27   21   22 1
    28   21   23 1
    29   22   24 1
    30   23   30 1
    31   25   31 1
    32   28   31 2
    33   29   31 2
    34   30   31 1
    35    1   32 1
    36    2   33 1
    37    3   34 1
    38    7   35 1
    39    7   36 1
    40    8   37 1
    41    8   38 1
    42    9   39 1
    43    9   40 1
    44   10   41 1
    45   10   42 1
    46   11   43 1
    47   11   44 1
    48   12   45 1
    49   13   46 1
    50   14   47 1
    51   15   48 1
    52   18   49 1
    53   18   50 1
    54   18   51 1
    55   19   52 1
    56   19   53 1
    57   19   54 1
    58   20   55 1
    59   20   56 1
    60   20   57 1
    61   21   58 1
    62   21   59 1
    63   22   60 1
    64   22   61 1
    65   23   62 1
    66   23   63 1
    67   24   64 1

@<TRIPOS>MOLECULE
DKPES_CSD_MMMF_1_27
   64    67     0     0     0
SMALL
USER_CHARGES

@<TRIPOS>ATOM
      1 C1          2.0121   -1.2143    1.2319 C.2       1 <0>        -0.1500
      2 C2          0.3162   -0.9298   -0.4630 C.2       1 <0>        -0.1356
      3 C3          2.9245   -1.9459    1.8863 C.2       1 <0>        -0.2882
      4 C4          1.3270   -1.6661    0.0290 C.2       1 <0>        -0.1382
      5 C5         -0.4261   -1.3440   -1.6772 C.2       1 <0>         0.4946
      6 C6          3.0520   -6.2645    1.2605 C.2       1 <0>         0.4480
      7 C7         -0.0521   -2.6371   -2.3563 C.3       1 <0>         0.0610
      8 C8          2.6249   -5.3856    0.0869 C.3       1 <0>         0.0610
      9 C9          0.6099   -3.6118   -1.3906 C.3       1 <0>         0.0000
     10 C10         4.4784   -3.8939    3.7777 C.3       1 <0>         0.0000
     11 C11         4.7891   -5.2227    4.4865 C.3       1 <0>         0.0000
     12 C12         3.3262   -3.3340    1.4645 C.3       1 <0>         0.1382
     13 C13         2.2273   -3.9675    0.5485 C.3       1 <0>         0.0000
     14 C14         3.5426   -4.2948    2.6428 C.3       1 <0>         0.0000
     15 C15         4.2322   -6.3446    3.5783 C.3       1 <0>         0.0000
     16 C16         1.7910   -2.9885   -0.5996 C.3       1 <0>         0.1382
     17 C17         4.0987   -5.6679    2.1953 C.3       1 <0>         0.0610
     18 C18         2.9581   -2.6968   -1.5724 C.3       1 <0>         0.0000
     19 C19         5.4441   -5.6231    1.4437 C.3       1 <0>         0.0000
     20 C20         4.2804   -8.7995    3.0961 C.3       1 <0>         0.0000
     21 C21         4.4902   -8.5856    5.9430 C.3       1 <0>         0.0000
     22 C22         5.5625   -7.9310    5.0711 C.3       1 <0>         0.0000
     23 C23         5.0030   -8.8549    7.3518 C.3       1 <0>         0.2800
     24 C24         5.0782   -7.6104    3.6426 C.3       1 <0>         0.0000
     25 O1          5.5862  -10.3957    9.6927 O.3       1 <0>        -0.8167
     26 O2         -1.3014   -0.6098   -2.1336 O.2       1 <0>        -0.5700
     27 O3          2.6287   -7.4120    1.3872 O.2       1 <0>        -0.5700
     28 O4          3.1873  -10.8343    9.9660 O.2       1 <0>        -0.8167
     29 O5          4.0776   -8.5919   10.4138 O.2       1 <0>        -0.8167
     30 O6          3.9606   -9.4473    8.1145 O.3       1 <0>        -0.4637
     31 S1          4.2301   -9.8491    9.6830 S.o2      1 <0>         1.6337
     32 H1          1.7714   -0.2251    1.6135 H         1 <0>         0.1500
     33 H2          0.0003    0.0002   -0.0001 H         1 <0>         0.1500
     34 H3          3.4155   -1.5047    2.7491 H         1 <0>         0.1500
     35 H4         -0.9660   -3.0949   -2.7512 H         1 <0>         0.0000
     36 H5          0.6022   -2.4064   -3.2029 H         1 <0>         0.0000
     37 H6          3.4445   -5.3628   -0.6369 H         1 <0>         0.0000
     38 H7          1.7735   -5.8804   -0.3920 H         1 <0>         0.0000
     39 H8         -0.1524   -3.9705   -0.6847 H         1 <0>         0.0000
     40 H9          0.9430   -4.4864   -1.9618 H         1 <0>         0.0000
     41 H10         4.0144   -3.1796    4.4653 H         1 <0>         0.0000
     42 H11         5.3994   -3.4390    3.3963 H         1 <0>         0.0000
     43 H12         5.8694   -5.3151    4.6450 H         1 <0>         0.0000
     44 H13         4.3104   -5.2623    5.4714 H         1 <0>         0.0000
     45 H14         4.2678   -3.2271    0.9157 H         1 <0>         0.0000
     46 H15         1.3362   -4.1106    1.1841 H         1 <0>         0.0000
     47 H16         2.5535   -4.4515    3.1073 H         1 <0>         0.0000
     48 H17         3.2283   -6.6104    3.9404 H         1 <0>         0.0000
     49 H18         3.2850   -3.6286   -2.0152 H         1 <0>         0.0000
     50 H19         3.7697   -2.2435   -1.0182 H         1 <0>         0.0000
     51 H20         2.6102   -2.0207   -2.3426 H         1 <0>         0.0000
     52 H21         6.2005   -5.2008    2.0953 H         1 <0>         0.0000
     53 H22         5.3355   -5.0069    0.5586 H         1 <0>         0.0000
     54 H23         5.7248   -6.6306    1.1587 H         1 <0>         0.0000
     55 H24         3.3864   -8.9844    3.7009 H         1 <0>         0.0000
     56 H25         4.8837   -9.7137    3.0936 H         1 <0>         0.0000
     57 H26         3.9524   -8.6071    2.0692 H         1 <0>         0.0000
     58 H27         3.5999   -7.9500    6.0081 H         1 <0>         0.0000
     59 H28         4.1571   -9.5286    5.4922 H         1 <0>         0.0000
     60 H29         6.4263   -8.6059    5.0117 H         1 <0>         0.0000
     61 H30         5.9152   -7.0121    5.5565 H         1 <0>         0.0000
     62 H31         5.3067   -7.9240    7.8410 H         1 <0>         0.0000
     63 H32         5.8544   -9.5427    7.3335 H         1 <0>         0.0000
     64 H33         5.9579   -7.4756    2.9974 H         1 <0>         0.0000
@<TRIPOS>BOND
     1    1    3 2
     2    1    4 1
     3    2    4 2
     4    2    5 1
     5    3   12 1
     6    4   16 1
     7    5    7 1
     8    5   26 2
     9    6    8 1
    10    6   17 1
    11    6   27 2
    12    7    9 1
    13    8   13 1
    14    9   16 1
    15   10   11 1
    16   10   14 1
    17   11   15 1
    18   12   13 1
    19   12   14 1
    20   13   16 1
    21   14   17 1
    22   15   17 1
    23   15   24 1
    24   16   18 1
    25   17   19 1
    26   20   24 1
    27   21   22 1
    28   21   23 1
    29   22   24 1
    30   23   30 1
    31   25   31 1
    32   28   31 2
    33   29   31 2
    34   30   31 1
    35    1   32 1
    36    2   33 1
    37    3   34 1
    38    7   35 1
    39    7   36 1
    40    8   37 1
    41    8   38 1
    42    9   39 1
    43    9   40 1
    44   10   41 1
    45   10   42 1
    46   11   43 1
    47   11   44 1
    48   12   45 1
    49   13   46 1
    50   14   47 1
    51   15   48 1
    52   18   49 1
    53   18   50 1
    54   18   51 1
    55   19   52 1
    56   19   53 1
    57   19   54 1
    58   20   55 1
    59   20   56 1
    60   20   57 1
    61   21   58 1
    62   21   59 1
    63   22   60 1
    64   22   61 1
    65   23   62 1
    66   23   63 1
    67   24   64 1

@<TRIPOS>MOLECULE
DKPES_CSD_MMMF_1_18
   64    67     0     0     0
SMALL
USER_CHARGES

@<TRIPOS>ATOM
      1 C1          2.0121   -1.2143    1.2319 C.2       1 <0>        -0.1500
      2 C2          0.3162   -0.9298   -0.4630 C.2       1 <0>        -0.1356
      3 C3          2.9245   -1.9459    1.8863 C.2       1 <0>        -0.2882
      4 C4          1.3270   -1.6661    0.0290 C.2       1 <0>        -0.1382
      5 C5         -0.4261   -1.3440   -1.6772 C.2       1 <0>         0.4946
      6 C6          3.0520   -6.2645    1.2605 C.2       1 <0>         0.4480
      7 C7         -0.0521   -2.6371   -2.3563 C.3       1 <0>         0.0610
      8 C8          2.6249   -5.3856    0.0869 C.3       1 <0>         0.0610
      9 C9          0.6099   -3.6118   -1.3906 C.3       1 <0>         0.0000
     10 C10         4.4784   -3.8939    3.7777 C.3       1 <0>         0.0000
     11 C11         4.7891   -5.2227    4.4865 C.3       1 <0>         0.0000
     12 C12         3.3262   -3.3340    1.4645 C.3       1 <0>         0.1382
     13 C13         2.2273   -3.9675    0.5485 C.3       1 <0>         0.0000
     14 C14         3.5426   -4.2948    2.6428 C.3       1 <0>         0.0000
     15 C15         4.2322   -6.3446    3.5783 C.3       1 <0>         0.0000
     16 C16         1.7910   -2.9885   -0.5996 C.3       1 <0>         0.1382
     17 C17         4.0987   -5.6679    2.1953 C.3       1 <0>         0.0610
     18 C18         2.9581   -2.6968   -1.5724 C.3       1 <0>         0.0000
     19 C19         5.4441   -5.6231    1.4437 C.3       1 <0>         0.0000
     20 C20         4.5183   -8.6617    2.6779 C.3       1 <0>         0.0000
     21 C21         5.9758   -9.4919    5.1403 C.3       1 <0>         0.0000
     22 C22         5.1520   -8.2058    5.0632 C.3       1 <0>         0.0000
     23 C23         7.4225   -9.2547    4.7271 C.3       1 <0>         0.2800
     24 C24         5.0782   -7.6104    3.6426 C.3       1 <0>         0.0000
     25 O1          9.1591  -10.0217    6.8694 O.3       1 <0>        -0.8167
     26 O2         -1.3014   -0.6098   -2.1336 O.2       1 <0>        -0.5700
     27 O3          2.6287   -7.4120    1.3872 O.2       1 <0>        -0.5700
     28 O4          7.2927   -8.7830    7.8713 O.2       1 <0>        -0.8167
     29 O5          9.4353   -7.6542    7.4762 O.2       1 <0>        -0.8167
     30 O6          7.9926   -8.2799    5.5896 O.3       1 <0>        -0.4637
     31 S1          8.5203   -8.7233    7.0793 S.o2      1 <0>         1.6337
     32 H1          1.7714   -0.2251    1.6135 H         1 <0>         0.1500
     33 H2          0.0003    0.0002   -0.0001 H         1 <0>         0.1500
     34 H3          3.4155   -1.5047    2.7491 H         1 <0>         0.1500
     35 H4         -0.9660   -3.0949   -2.7512 H         1 <0>         0.0000
     36 H5          0.6022   -2.4064   -3.2029 H         1 <0>         0.0000
     37 H6          3.4445   -5.3628   -0.6369 H         1 <0>         0.0000
     38 H7          1.7735   -5.8804   -0.3920 H         1 <0>         0.0000
     39 H8         -0.1524   -3.9705   -0.6847 H         1 <0>         0.0000
     40 H9          0.9430   -4.4864   -1.9618 H         1 <0>         0.0000
     41 H10         4.0144   -3.1796    4.4653 H         1 <0>         0.0000
     42 H11         5.3994   -3.4390    3.3963 H         1 <0>         0.0000
     43 H12         5.8694   -5.3151    4.6450 H         1 <0>         0.0000
     44 H13         4.3104   -5.2623    5.4714 H         1 <0>         0.0000
     45 H14         4.2678   -3.2271    0.9157 H         1 <0>         0.0000
     46 H15         1.3362   -4.1106    1.1841 H         1 <0>         0.0000
     47 H16         2.5535   -4.4515    3.1073 H         1 <0>         0.0000
     48 H17         3.2283   -6.6104    3.9404 H         1 <0>         0.0000
     49 H18         3.2850   -3.6286   -2.0152 H         1 <0>         0.0000
     50 H19         3.7697   -2.2435   -1.0182 H         1 <0>         0.0000
     51 H20         2.6102   -2.0207   -2.3426 H         1 <0>         0.0000
     52 H21         6.2005   -5.2008    2.0953 H         1 <0>         0.0000
     53 H22         5.3355   -5.0069    0.5586 H         1 <0>         0.0000
     54 H23         5.7248   -6.6306    1.1587 H         1 <0>         0.0000
     55 H24         3.4984   -8.9472    2.9564 H         1 <0>         0.0000
     56 H25         5.1358   -9.5663    2.6762 H         1 <0>         0.0000
     57 H26         4.4862   -8.2713    1.6553 H         1 <0>         0.0000
     58 H27         5.9628   -9.9021    6.1564 H         1 <0>         0.0000
     59 H28         5.5368  -10.2638    4.4961 H         1 <0>         0.0000
     60 H29         5.5971   -7.4633    5.7383 H         1 <0>         0.0000
     61 H30         4.1381   -8.4002    5.4353 H         1 <0>         0.0000
     62 H31         7.4787   -8.8849    3.6983 H         1 <0>         0.0000
     63 H32         8.0085  -10.1757    4.8078 H         1 <0>         0.0000
     64 H33         6.0978   -7.3661    3.3127 H         1 <0>         0.0000
@<TRIPOS>BOND
     1    1    3 2
     2    1    4 1
     3    2    4 2
     4    2    5 1
     5    3   12 1
     6    4   16 1
     7    5    7 1
     8    5   26 2
     9    6    8 1
    10    6   17 1
    11    6   27 2
    12    7    9 1
    13    8   13 1
    14    9   16 1
    15   10   11 1
    16   10   14 1
    17   11   15 1
    18   12   13 1
    19   12   14 1
    20   13   16 1
    21   14   17 1
    22   15   17 1
    23   15   24 1
    24   16   18 1
    25   17   19 1
    26   20   24 1
    27   21   22 1
    28   21   23 1
    29   22   24 1
    30   23   30 1
    31   25   31 1
    32   28   31 2
    33   29   31 2
    34   30   31 1
    35    1   32 1
    36    2   33 1
    37    3   34 1
    38    7   35 1
    39    7   36 1
    40    8   37 1
    41    8   38 1
    42    9   39 1
    43    9   40 1
    44   10   41 1
    45   10   42 1
    46   11   43 1
    47   11   44 1
    48   12   45 1
    49   13   46 1
    50   14   47 1
    51   15   48 1
    52   18   49 1
    53   18   50 1
    54   18   51 1
    55   19   52 1
    56   19   53 1
    57   19   54 1
    58   20   55 1
    59   20   56 1
    60   20   57 1
    61   21   58 1
    62   21   59 1
    63   22   60 1
    64   22   61 1
    65   23   62 1
    66   23   63 1
    67   24   64 1

@<TRIPOS>MOLECULE
DKPES_CSD_MMMF_1_16
   64    67     0     0     0
SMALL
USER_CHARGES

@<TRIPOS>ATOM
      1 C1          2.0121   -1.2143    1.2319 C.2       1 <0>        -0.1500
      2 C2          0.3162   -0.9298   -0.4630 C.2       1 <0>        -0.1356
      3 C3          2.9245   -1.9459    1.8863 C.2       1 <0>        -0.2882
      4 C4          1.3270   -1.6661    0.0290 C.2       1 <0>        -0.1382
      5 C5         -0.4261   -1.3440   -1.6772 C.2       1 <0>         0.4946
      6 C6          3.0520   -6.2645    1.2605 C.2       1 <0>         0.4480
      7 C7         -0.0521   -2.6371   -2.3563 C.3       1 <0>         0.0610
      8 C8          2.6249   -5.3856    0.0869 C.3       1 <0>         0.0610
      9 C9          0.6099   -3.6118   -1.3906 C.3       1 <0>         0.0000
     10 C10         4.4784   -3.8939    3.7777 C.3       1 <0>         0.0000
     11 C11         4.7891   -5.2227    4.4865 C.3       1 <0>         0.0000
     12 C12         3.3262   -3.3340    1.4645 C.3       1 <0>         0.1382
     13 C13         2.2273   -3.9675    0.5485 C.3       1 <0>         0.0000
     14 C14         3.5426   -4.2948    2.6428 C.3       1 <0>         0.0000
     15 C15         4.2322   -6.3446    3.5783 C.3       1 <0>         0.0000
     16 C16         1.7910   -2.9885   -0.5996 C.3       1 <0>         0.1382
     17 C17         4.0987   -5.6679    2.1953 C.3       1 <0>         0.0610
     18 C18         2.9581   -2.6968   -1.5724 C.3       1 <0>         0.0000
     19 C19         5.4441   -5.6231    1.4437 C.3       1 <0>         0.0000
     20 C20         4.2804   -8.7995    3.0961 C.3       1 <0>         0.0000
     21 C21         6.3911   -9.2134    5.1576 C.3       1 <0>         0.0000
     22 C22         5.5625   -7.9310    5.0711 C.3       1 <0>         0.0000
     23 C23         6.8204   -9.5060    6.5895 C.3       1 <0>         0.2800
     24 C24         5.0782   -7.6104    3.6426 C.3       1 <0>         0.0000
     25 O1          7.8222  -10.5805    9.0462 O.3       1 <0>        -0.8167
     26 O2         -1.3014   -0.6098   -2.1336 O.2       1 <0>        -0.5700
     27 O3          2.6287   -7.4120    1.3872 O.2       1 <0>        -0.5700
     28 O4          9.7567  -10.2332    7.5769 O.2       1 <0>        -0.8167
     29 O5          8.7867  -12.4752    7.8095 O.2       1 <0>        -0.8167
     30 O6          7.5708  -10.7125    6.6066 O.3       1 <0>        -0.4637
     31 S1          8.5672  -11.0309    7.8715 S.o2      1 <0>         1.6337
     32 H1          1.7714   -0.2251    1.6135 H         1 <0>         0.1500
     33 H2          0.0003    0.0002   -0.0001 H         1 <0>         0.1500
     34 H3          3.4155   -1.5047    2.7491 H         1 <0>         0.1500
     35 H4         -0.9660   -3.0949   -2.7512 H         1 <0>         0.0000
     36 H5          0.6022   -2.4064   -3.2029 H         1 <0>         0.0000
     37 H6          3.4445   -5.3628   -0.6369 H         1 <0>         0.0000
     38 H7          1.7735   -5.8804   -0.3920 H         1 <0>         0.0000
     39 H8         -0.1524   -3.9705   -0.6847 H         1 <0>         0.0000
     40 H9          0.9430   -4.4864   -1.9618 H         1 <0>         0.0000
     41 H10         4.0144   -3.1796    4.4653 H         1 <0>         0.0000
     42 H11         5.3994   -3.4390    3.3963 H         1 <0>         0.0000
     43 H12         5.8694   -5.3151    4.6450 H         1 <0>         0.0000
     44 H13         4.3104   -5.2623    5.4714 H         1 <0>         0.0000
     45 H14         4.2678   -3.2271    0.9157 H         1 <0>         0.0000
     46 H15         1.3362   -4.1106    1.1841 H         1 <0>         0.0000
     47 H16         2.5535   -4.4515    3.1073 H         1 <0>         0.0000
     48 H17         3.2283   -6.6104    3.9404 H         1 <0>         0.0000
     49 H18         3.2850   -3.6286   -2.0152 H         1 <0>         0.0000
     50 H19         3.7697   -2.2435   -1.0182 H         1 <0>         0.0000
     51 H20         2.6102   -2.0207   -2.3426 H         1 <0>         0.0000
     52 H21         6.2005   -5.2008    2.0953 H         1 <0>         0.0000
     53 H22         5.3355   -5.0069    0.5586 H         1 <0>         0.0000
     54 H23         5.7248   -6.6306    1.1587 H         1 <0>         0.0000
     55 H24         3.3864   -8.9844    3.7009 H         1 <0>         0.0000
     56 H25         4.8837   -9.7137    3.0936 H         1 <0>         0.0000
     57 H26         3.9524   -8.6071    2.0692 H         1 <0>         0.0000
     58 H27         5.8230  -10.0703    4.7785 H         1 <0>         0.0000
     59 H28         7.2813   -9.1345    4.5214 H         1 <0>         0.0000
     60 H29         6.1718   -7.0944    5.4372 H         1 <0>         0.0000
     61 H30         4.6997   -8.0091    5.7448 H         1 <0>         0.0000
     62 H31         5.9490   -9.6285    7.2406 H         1 <0>         0.0000
     63 H32         7.4487   -8.7002    6.9821 H         1 <0>         0.0000
     64 H33         5.9579   -7.4756    2.9974 H         1 <0>         0.0000
@<TRIPOS>BOND
     1    1    3 2
     2    1    4 1
     3    2    4 2
     4    2    5 1
     5    3   12 1
     6    4   16 1
     7    5    7 1
     8    5   26 2
     9    6    8 1
    10    6   17 1
    11    6   27 2
    12    7    9 1
    13    8   13 1
    14    9   16 1
    15   10   11 1
    16   10   14 1
    17   11   15 1
    18   12   13 1
    19   12   14 1
    20   13   16 1
    21   14   17 1
    22   15   17 1
    23   15   24 1
    24   16   18 1
    25   17   19 1
    26   20   24 1
    27   21   22 1
    28   21   23 1
    29   22   24 1
    30   23   30 1
    31   25   31 1
    32   28   31 2
    33   29   31 2
    34   30   31 1
    35    1   32 1
    36    2   33 1
    37    3   34 1
    38    7   35 1
    39    7   36 1
    40    8   37 1
    41    8   38 1
    42    9   39 1
    43    9   40 1
    44   10   41 1
    45   10   42 1
    46   11   43 1
    47   11   44 1
    48   12   45 1
    49   13   46 1
    50   14   47 1
    51   15   48 1
    52   18   49 1
    53   18   50 1
    54   18   51 1
    55   19   52 1
    56   19   53 1
    57   19   54 1
    58   20   55 1
    59   20   56 1
    60   20   57 1
    61   21   58 1
    62   21   59 1
    63   22   60 1
    64   22   61 1
    65   23   62 1
    66   23   63 1
    67   24   64 1

@<TRIPOS>MOLECULE
DKPES_CSD_MMMF_1_8
   64    67     0     0     0
SMALL
USER_CHARGES

@<TRIPOS>ATOM
      1 C1          2.0121   -1.2143    1.2319 C.2       1 <0>        -0.1500
      2 C2          0.3162   -0.9298   -0.4630 C.2       1 <0>        -0.1356
      3 C3          2.9245   -1.9459    1.8863 C.2       1 <0>        -0.2882
      4 C4          1.3270   -1.6661    0.0290 C.2       1 <0>        -0.1382
      5 C5         -0.4261   -1.3440   -1.6772 C.2       1 <0>         0.4946
      6 C6          3.0520   -6.2645    1.2605 C.2       1 <0>         0.4480
      7 C7         -0.0521   -2.6371   -2.3563 C.3       1 <0>         0.0610
      8 C8          2.6249   -5.3856    0.0869 C.3       1 <0>         0.0610
      9 C9          0.6099   -3.6118   -1.3906 C.3       1 <0>         0.0000
     10 C10         4.4784   -3.8939    3.7777 C.3       1 <0>         0.0000
     11 C11         4.7891   -5.2227    4.4865 C.3       1 <0>         0.0000
     12 C12         3.3262   -3.3340    1.4645 C.3       1 <0>         0.1382
     13 C13         2.2273   -3.9675    0.5485 C.3       1 <0>         0.0000
     14 C14         3.5426   -4.2948    2.6428 C.3       1 <0>         0.0000
     15 C15         4.2322   -6.3446    3.5783 C.3       1 <0>         0.0000
     16 C16         1.7910   -2.9885   -0.5996 C.3       1 <0>         0.1382
     17 C17         4.0987   -5.6679    2.1953 C.3       1 <0>         0.0610
     18 C18         2.9581   -2.6968   -1.5724 C.3       1 <0>         0.0000
     19 C19         5.4441   -5.6231    1.4437 C.3       1 <0>         0.0000
     20 C20         4.5183   -8.6617    2.6779 C.3       1 <0>         0.0000
     21 C21         6.3229   -9.1702    5.2571 C.3       1 <0>         0.0000
     22 C22         5.1520   -8.2058    5.0632 C.3       1 <0>         0.0000
     23 C23         6.3373   -9.7563    6.6629 C.3       1 <0>         0.2800
     24 C24         5.0782   -7.6104    3.6426 C.3       1 <0>         0.0000
     25 O1          8.7468   -8.9707    7.9937 O.3       1 <0>        -0.8167
     26 O2         -1.3014   -0.6098   -2.1336 O.2       1 <0>        -0.5700
     27 O3          2.6287   -7.4120    1.3872 O.2       1 <0>        -0.5700
     28 O4          9.3705   -9.6191    5.7107 O.2       1 <0>        -0.8167
     29 O5          9.6970  -11.1976    7.5608 O.2       1 <0>        -0.8167
     30 O6          7.4346  -10.6521    6.7758 O.3       1 <0>        -0.4637
     31 S1          8.9427  -10.0595    7.0377 S.o2      1 <0>         1.6337
     32 H1          1.7714   -0.2251    1.6135 H         1 <0>         0.1500
     33 H2          0.0003    0.0002   -0.0001 H         1 <0>         0.1500
     34 H3          3.4155   -1.5047    2.7491 H         1 <0>         0.1500
     35 H4         -0.9660   -3.0949   -2.7512 H         1 <0>         0.0000
     36 H5          0.6022   -2.4064   -3.2029 H         1 <0>         0.0000
     37 H6          3.4445   -5.3628   -0.6369 H         1 <0>         0.0000
     38 H7          1.7735   -5.8804   -0.3920 H         1 <0>         0.0000
     39 H8         -0.1524   -3.9705   -0.6847 H         1 <0>         0.0000
     40 H9          0.9430   -4.4864   -1.9618 H         1 <0>         0.0000
     41 H10         4.0144   -3.1796    4.4653 H         1 <0>         0.0000
     42 H11         5.3994   -3.4390    3.3963 H         1 <0>         0.0000
     43 H12         5.8694   -5.3151    4.6450 H         1 <0>         0.0000
     44 H13         4.3104   -5.2623    5.4714 H         1 <0>         0.0000
     45 H14         4.2678   -3.2271    0.9157 H         1 <0>         0.0000
     46 H15         1.3362   -4.1106    1.1841 H         1 <0>         0.0000
     47 H16         2.5535   -4.4515    3.1073 H         1 <0>         0.0000
     48 H17         3.2283   -6.6104    3.9404 H         1 <0>         0.0000
     49 H18         3.2850   -3.6286   -2.0152 H         1 <0>         0.0000
     50 H19         3.7697   -2.2435   -1.0182 H         1 <0>         0.0000
     51 H20         2.6102   -2.0207   -2.3426 H         1 <0>         0.0000
     52 H21         6.2005   -5.2008    2.0953 H         1 <0>         0.0000
     53 H22         5.3355   -5.0069    0.5586 H         1 <0>         0.0000
     54 H23         5.7248   -6.6306    1.1587 H         1 <0>         0.0000
     55 H24         3.4984   -8.9472    2.9564 H         1 <0>         0.0000
     56 H25         5.1358   -9.5663    2.6762 H         1 <0>         0.0000
     57 H26         4.4862   -8.2713    1.6553 H         1 <0>         0.0000
     58 H27         6.2743   -9.9919    4.5337 H         1 <0>         0.0000
     59 H28         7.2737   -8.6565    5.0689 H         1 <0>         0.0000
     60 H29         5.2482   -7.3872    5.7883 H         1 <0>         0.0000
     61 H30         4.2124   -8.7226    5.2963 H         1 <0>         0.0000
     62 H31         5.4142  -10.3091    6.8645 H         1 <0>         0.0000
     63 H32         6.4529   -8.9686    7.4141 H         1 <0>         0.0000
     64 H33         6.0978   -7.3661    3.3127 H         1 <0>         0.0000
@<TRIPOS>BOND
     1    1    3 2
     2    1    4 1
     3    2    4 2
     4    2    5 1
     5    3   12 1
     6    4   16 1
     7    5    7 1
     8    5   26 2
     9    6    8 1
    10    6   17 1
    11    6   27 2
    12    7    9 1
    13    8   13 1
    14    9   16 1
    15   10   11 1
    16   10   14 1
    17   11   15 1
    18   12   13 1
    19   12   14 1
    20   13   16 1
    21   14   17 1
    22   15   17 1
    23   15   24 1
    24   16   18 1
    25   17   19 1
    26   20   24 1
    27   21   22 1
    28   21   23 1
    29   22   24 1
    30   23   30 1
    31   25   31 1
    32   28   31 2
    33   29   31 2
    34   30   31 1
    35    1   32 1
    36    2   33 1
    37    3   34 1
    38    7   35 1
    39    7   36 1
    40    8   37 1
    41    8   38 1
    42    9   39 1
    43    9   40 1
    44   10   41 1
    45   10   42 1
    46   11   43 1
    47   11   44 1
    48   12   45 1
    49   13   46 1
    50   14   47 1
    51   15   48 1
    52   18   49 1
    53   18   50 1
    54   18   51 1
    55   19   52 1
    56   19   53 1
    57   19   54 1
    58   20   55 1
    59   20   56 1
    60   20   57 1
    61   21   58 1
    62   21   59 1
    63   22   60 1
    64   22   61 1
    65   23   62 1
    66   23   63 1
    67   24   64 1

@<TRIPOS>MOLECULE
DKPES_CSD_MMMF_1_18
   64    67     0     0     0
SMALL
USER_CHARGES

@<TRIPOS>ATOM
      1 C1          2.0121   -1.2143    1.2319 C.2       1 <0>        -0.1500
      2 C2          0.3162   -0.9298   -0.4630 C.2       1 <0>        -0.1356
      3 C3          2.9245   -1.9459    1.8863 C.2       1 <0>        -0.2882
      4 C4          1.3270   -1.6661    0.0290 C.2       1 <0>        -0.1382
      5 C5         -0.4261   -1.3440   -1.6772 C.2       1 <0>         0.4946
      6 C6          3.0520   -6.2645    1.2605 C.2       1 <0>         0.4480
      7 C7         -0.0521   -2.6371   -2.3563 C.3       1 <0>         0.0610
      8 C8          2.6249   -5.3856    0.0869 C.3       1 <0>         0.0610
      9 C9          0.6099   -3.6118   -1.3906 C.3       1 <0>         0.0000
     10 C10         4.4784   -3.8939    3.7777 C.3       1 <0>         0.0000
     11 C11         4.7891   -5.2227    4.4865 C.3       1 <0>         0.0000
     12 C12         3.3262   -3.3340    1.4645 C.3       1 <0>         0.1382
     13 C13         2.2273   -3.9675    0.5485 C.3       1 <0>         0.0000
     14 C14         3.5426   -4.2948    2.6428 C.3       1 <0>         0.0000
     15 C15         4.2322   -6.3446    3.5783 C.3       1 <0>         0.0000
     16 C16         1.7910   -2.9885   -0.5996 C.3       1 <0>         0.1382
     17 C17         4.0987   -5.6679    2.1953 C.3       1 <0>         0.0610
     18 C18         2.9581   -2.6968   -1.5724 C.3       1 <0>         0.0000
     19 C19         5.4441   -5.6231    1.4437 C.3       1 <0>         0.0000
     20 C20         4.5183   -8.6617    2.6779 C.3       1 <0>         0.0000
     21 C21         5.9758   -9.4919    5.1403 C.3       1 <0>         0.0000
     22 C22         5.1520   -8.2058    5.0632 C.3       1 <0>         0.0000
     23 C23         7.4225   -9.2547    4.7271 C.3       1 <0>         0.2800
     24 C24         5.0782   -7.6104    3.6426 C.3       1 <0>         0.0000
     25 O1          9.1591  -10.0217    6.8694 O.3       1 <0>        -0.8167
     26 O2         -1.3014   -0.6098   -2.1336 O.2       1 <0>        -0.5700
     27 O3          2.6287   -7.4120    1.3872 O.2       1 <0>        -0.5700
     28 O4          7.2927   -8.7830    7.8713 O.2       1 <0>        -0.8167
     29 O5          9.4353   -7.6542    7.4762 O.2       1 <0>        -0.8167
     30 O6          7.9926   -8.2799    5.5896 O.3       1 <0>        -0.4637
     31 S1          8.5203   -8.7233    7.0793 S.o2      1 <0>         1.6337
     32 H1          1.7714   -0.2251    1.6135 H         1 <0>         0.1500
     33 H2          0.0003    0.0002   -0.0001 H         1 <0>         0.1500
     34 H3          3.4155   -1.5047    2.7491 H         1 <0>         0.1500
     35 H4         -0.9660   -3.0949   -2.7512 H         1 <0>         0.0000
     36 H5          0.6022   -2.4064   -3.2029 H         1 <0>         0.0000
     37 H6          3.4445   -5.3628   -0.6369 H         1 <0>         0.0000
     38 H7          1.7735   -5.8804   -0.3920 H         1 <0>         0.0000
     39 H8         -0.1524   -3.9705   -0.6847 H         1 <0>         0.0000
     40 H9          0.9430   -4.4864   -1.9618 H         1 <0>         0.0000
     41 H10         4.0144   -3.1796    4.4653 H         1 <0>         0.0000
     42 H11         5.3994   -3.4390    3.3963 H         1 <0>         0.0000
     43 H12         5.8694   -5.3151    4.6450 H         1 <0>         0.0000
     44 H13         4.3104   -5.2623    5.4714 H         1 <0>         0.0000
     45 H14         4.2678   -3.2271    0.9157 H         1 <0>         0.0000
     46 H15         1.3362   -4.1106    1.1841 H         1 <0>         0.0000
     47 H16         2.5535   -4.4515    3.1073 H         1 <0>         0.0000
     48 H17         3.2283   -6.6104    3.9404 H         1 <0>         0.0000
     49 H18         3.2850   -3.6286   -2.0152 H         1 <0>         0.0000
     50 H19         3.7697   -2.2435   -1.0182 H         1 <0>         0.0000
     51 H20         2.6102   -2.0207   -2.3426 H         1 <0>         0.0000
     52 H21         6.2005   -5.2008    2.0953 H         1 <0>         0.0000
     53 H22         5.3355   -5.0069    0.5586 H         1 <0>         0.0000
     54 H23         5.7248   -6.6306    1.1587 H         1 <0>         0.0000
     55 H24         3.4984   -8.9472    2.9564 H         1 <0>         0.0000
     56 H25         5.1358   -9.5663    2.6762 H         1 <0>         0.0000
     57 H26         4.4862   -8.2713    1.6553 H         1 <0>         0.0000
     58 H27         5.9628   -9.9021    6.1564 H         1 <0>         0.0000
     59 H28         5.5368  -10.2638    4.4961 H         1 <0>         0.0000
     60 H29         5.5971   -7.4633    5.7383 H         1 <0>         0.0000
     61 H30         4.1381   -8.4002    5.4353 H         1 <0>         0.0000
     62 H31         7.4787   -8.8849    3.6983 H         1 <0>         0.0000
     63 H32         8.0085  -10.1757    4.8078 H         1 <0>         0.0000
     64 H33         6.0978   -7.3661    3.3127 H         1 <0>         0.0000
@<TRIPOS>BOND
     1    1    3 2
     2    1    4 1
     3    2    4 2
     4    2    5 1
     5    3   12 1
     6    4   16 1
     7    5    7 1
     8    5   26 2
     9    6    8 1
    10    6   17 1
    11    6   27 2
    12    7    9 1
    13    8   13 1
    14    9   16 1
    15   10   11 1
    16   10   14 1
    17   11   15 1
    18   12   13 1
    19   12   14 1
    20   13   16 1
    21   14   17 1
    22   15   17 1
    23   15   24 1
    24   16   18 1
    25   17   19 1
    26   20   24 1
    27   21   22 1
    28   21   23 1
    29   22   24 1
    30   23   30 1
    31   25   31 1
    32   28   31 2
    33   29   31 2
    34   30   31 1
    35    1   32 1
    36    2   33 1
    37    3   34 1
    38    7   35 1
    39    7   36 1
    40    8   37 1
    41    8   38 1
    42    9   39 1
    43    9   40 1
    44   10   41 1
    45   10   42 1
    46   11   43 1
    47   11   44 1
    48   12   45 1
    49   13   46 1
    50   14   47 1
    51   15   48 1
    52   18   49 1
    53   18   50 1
    54   18   51 1
    55   19   52 1
    56   19   53 1
    57   19   54 1
    58   20   55 1
    59   20   56 1
    60   20   57 1
    61   21   58 1
    62   21   59 1
    63   22   60 1
    64   22   61 1
    65   23   62 1
    66   23   63 1
    67   24   64 1

@<TRIPOS>MOLECULE
DKPES_CSD_MMMF_1_8
   64    67     0     0     0
SMALL
USER_CHARGES

@<TRIPOS>ATOM
      1 C1          2.0121   -1.2143    1.2319 C.2       1 <0>        -0.1500
      2 C2          0.3162   -0.9298   -0.4630 C.2       1 <0>        -0.1356
      3 C3          2.9245   -1.9459    1.8863 C.2       1 <0>        -0.2882
      4 C4          1.3270   -1.6661    0.0290 C.2       1 <0>        -0.1382
      5 C5         -0.4261   -1.3440   -1.6772 C.2       1 <0>         0.4946
      6 C6          3.0520   -6.2645    1.2605 C.2       1 <0>         0.4480
      7 C7         -0.0521   -2.6371   -2.3563 C.3       1 <0>         0.0610
      8 C8          2.6249   -5.3856    0.0869 C.3       1 <0>         0.0610
      9 C9          0.6099   -3.6118   -1.3906 C.3       1 <0>         0.0000
     10 C10         4.4784   -3.8939    3.7777 C.3       1 <0>         0.0000
     11 C11         4.7891   -5.2227    4.4865 C.3       1 <0>         0.0000
     12 C12         3.3262   -3.3340    1.4645 C.3       1 <0>         0.1382
     13 C13         2.2273   -3.9675    0.5485 C.3       1 <0>         0.0000
     14 C14         3.5426   -4.2948    2.6428 C.3       1 <0>         0.0000
     15 C15         4.2322   -6.3446    3.5783 C.3       1 <0>         0.0000
     16 C16         1.7910   -2.9885   -0.5996 C.3       1 <0>         0.1382
     17 C17         4.0987   -5.6679    2.1953 C.3       1 <0>         0.0610
     18 C18         2.9581   -2.6968   -1.5724 C.3       1 <0>         0.0000
     19 C19         5.4441   -5.6231    1.4437 C.3       1 <0>         0.0000
     20 C20         4.5183   -8.6617    2.6779 C.3       1 <0>         0.0000
     21 C21         6.3229   -9.1702    5.2571 C.3       1 <0>         0.0000
     22 C22         5.1520   -8.2058    5.0632 C.3       1 <0>         0.0000
     23 C23         6.3373   -9.7563    6.6629 C.3       1 <0>         0.2800
     24 C24         5.0782   -7.6104    3.6426 C.3       1 <0>         0.0000
     25 O1          8.7468   -8.9707    7.9937 O.3       1 <0>        -0.8167
     26 O2         -1.3014   -0.6098   -2.1336 O.2       1 <0>        -0.5700
     27 O3          2.6287   -7.4120    1.3872 O.2       1 <0>        -0.5700
     28 O4          9.3705   -9.6191    5.7107 O.2       1 <0>        -0.8167
     29 O5          9.6970  -11.1976    7.5608 O.2       1 <0>        -0.8167
     30 O6          7.4346  -10.6521    6.7758 O.3       1 <0>        -0.4637
     31 S1          8.9427  -10.0595    7.0377 S.o2      1 <0>         1.6337
     32 H1          1.7714   -0.2251    1.6135 H         1 <0>         0.1500
     33 H2          0.0003    0.0002   -0.0001 H         1 <0>         0.1500
     34 H3          3.4155   -1.5047    2.7491 H         1 <0>         0.1500
     35 H4         -0.9660   -3.0949   -2.7512 H         1 <0>         0.0000
     36 H5          0.6022   -2.4064   -3.2029 H         1 <0>         0.0000
     37 H6          3.4445   -5.3628   -0.6369 H         1 <0>         0.0000
     38 H7          1.7735   -5.8804   -0.3920 H         1 <0>         0.0000
     39 H8         -0.1524   -3.9705   -0.6847 H         1 <0>         0.0000
     40 H9          0.9430   -4.4864   -1.9618 H         1 <0>         0.0000
     41 H10         4.0144   -3.1796    4.4653 H         1 <0>         0.0000
     42 H11         5.3994   -3.4390    3.3963 H         1 <0>         0.0000
     43 H12         5.8694   -5.3151    4.6450 H         1 <0>         0.0000
     44 H13         4.3104   -5.2623    5.4714 H         1 <0>         0.0000
     45 H14         4.2678   -3.2271    0.9157 H         1 <0>         0.0000
     46 H15         1.3362   -4.1106    1.1841 H         1 <0>         0.0000
     47 H16         2.5535   -4.4515    3.1073 H         1 <0>         0.0000
     48 H17         3.2283   -6.6104    3.9404 H         1 <0>         0.0000
     49 H18         3.2850   -3.6286   -2.0152 H         1 <0>         0.0000
     50 H19         3.7697   -2.2435   -1.0182 H         1 <0>         0.0000
     51 H20         2.6102   -2.0207   -2.3426 H         1 <0>         0.0000
     52 H21         6.2005   -5.2008    2.0953 H         1 <0>         0.0000
     53 H22         5.3355   -5.0069    0.5586 H         1 <0>         0.0000
     54 H23         5.7248   -6.6306    1.1587 H         1 <0>         0.0000
     55 H24         3.4984   -8.9472    2.9564 H         1 <0>         0.0000
     56 H25         5.1358   -9.5663    2.6762 H         1 <0>         0.0000
     57 H26         4.4862   -8.2713    1.6553 H         1 <0>         0.0000
     58 H27         6.2743   -9.9919    4.5337 H         1 <0>         0.0000
     59 H28         7.2737   -8.6565    5.0689 H         1 <0>         0.0000
     60 H29         5.2482   -7.3872    5.7883 H         1 <0>         0.0000
     61 H30         4.2124   -8.7226    5.2963 H         1 <0>         0.0000
     62 H31         5.4142  -10.3091    6.8645 H         1 <0>         0.0000
     63 H32         6.4529   -8.9686    7.4141 H         1 <0>         0.0000
     64 H33         6.0978   -7.3661    3.3127 H         1 <0>         0.0000
@<TRIPOS>BOND
     1    1    3 2
     2    1    4 1
     3    2    4 2
     4    2    5 1
     5    3   12 1
     6    4   16 1
     7    5    7 1
     8    5   26 2
     9    6    8 1
    10    6   17 1
    11    6   27 2
    12    7    9 1
    13    8   13 1
    14    9   16 1
    15   10   11 1
    16   10   14 1
    17   11   15 1
    18   12   13 1
    19   12   14 1
    20   13   16 1
    21   14   17 1
    22   15   17 1
    23   15   24 1
    24   16   18 1
    25   17   19 1
    26   20   24 1
    27   21   22 1
    28   21   23 1
    29   22   24 1
    30   23   30 1
    31   25   31 1
    32   28   31 2
    33   29   31 2
    34   30   31 1
    35    1   32 1
    36    2   33 1
    37    3   34 1
    38    7   35 1
    39    7   36 1
    40    8   37 1
    41    8   38 1
    42    9   39 1
    43    9   40 1
    44   10   41 1
    45   10   42 1
    46   11   43 1
    47   11   44 1
    48   12   45 1
    49   13   46 1
    50   14   47 1
    51   15   48 1
    52   18   49 1
    53   18   50 1
    54   18   51 1
    55   19   52 1
    56   19   53 1
    57   19   54 1
    58   20   55 1
    59   20   56 1
    60   20   57 1
    61   21   58 1
    62   21   59 1
    63   22   60 1
    64   22   61 1
    65   23   62 1
    66   23   63 1
    67   24   64 1

@<TRIPOS>MOLECULE
DKPES_CSD_MMMF_1_23
   64    67     0     0     0
SMALL
USER_CHARGES

@<TRIPOS>ATOM
      1 C1          2.0121   -1.2143    1.2319 C.2       1 <0>        -0.1500
      2 C2          0.3162   -0.9298   -0.4630 C.2       1 <0>        -0.1356
      3 C3          2.9245   -1.9459    1.8863 C.2       1 <0>        -0.2882
      4 C4          1.3270   -1.6661    0.0290 C.2       1 <0>        -0.1382
      5 C5         -0.4261   -1.3440   -1.6772 C.2       1 <0>         0.4946
      6 C6          3.0520   -6.2645    1.2605 C.2       1 <0>         0.4480
      7 C7         -0.0521   -2.6371   -2.3563 C.3       1 <0>         0.0610
      8 C8          2.6249   -5.3856    0.0869 C.3       1 <0>         0.0610
      9 C9          0.6099   -3.6118   -1.3906 C.3       1 <0>         0.0000
     10 C10         4.4784   -3.8939    3.7777 C.3       1 <0>         0.0000
     11 C11         4.7891   -5.2227    4.4865 C.3       1 <0>         0.0000
     12 C12         3.3262   -3.3340    1.4645 C.3       1 <0>         0.1382
     13 C13         2.2273   -3.9675    0.5485 C.3       1 <0>         0.0000
     14 C14         3.5426   -4.2948    2.6428 C.3       1 <0>         0.0000
     15 C15         4.2322   -6.3446    3.5783 C.3       1 <0>         0.0000
     16 C16         1.7910   -2.9885   -0.5996 C.3       1 <0>         0.1382
     17 C17         4.0987   -5.6679    2.1953 C.3       1 <0>         0.0610
     18 C18         2.9581   -2.6968   -1.5724 C.3       1 <0>         0.0000
     19 C19         5.4441   -5.6231    1.4437 C.3       1 <0>         0.0000
     20 C20         4.5183   -8.6617    2.6779 C.3       1 <0>         0.0000
     21 C21         5.5328   -9.6867    5.0816 C.3       1 <0>         0.0000
     22 C22         5.1520   -8.2058    5.0632 C.3       1 <0>         0.0000
     23 C23         6.9113   -9.9170    4.4760 C.3       1 <0>         0.2800
     24 C24         5.0782   -7.6104    3.6426 C.3       1 <0>         0.0000
     25 O1          9.4243  -10.9171    3.5387 O.3       1 <0>        -0.8167
     26 O2         -1.3014   -0.6098   -2.1336 O.2       1 <0>        -0.5700
     27 O3          2.6287   -7.4120    1.3872 O.2       1 <0>        -0.5700
     28 O4          7.6748  -12.0786    2.2691 O.2       1 <0>        -0.8167
     29 O5          8.7425  -13.1924    4.1772 O.2       1 <0>        -0.8167
     30 O6          7.2132  -11.3043    4.5356 O.3       1 <0>        -0.4637
     31 S1          8.3670  -11.9271    3.5481 S.o2      1 <0>         1.6337
     32 H1          1.7714   -0.2251    1.6135 H         1 <0>         0.1500
     33 H2          0.0003    0.0002   -0.0001 H         1 <0>         0.1500
     34 H3          3.4155   -1.5047    2.7491 H         1 <0>         0.1500
     35 H4         -0.9660   -3.0949   -2.7512 H         1 <0>         0.0000
     36 H5          0.6022   -2.4064   -3.2029 H         1 <0>         0.0000
     37 H6          3.4445   -5.3628   -0.6369 H         1 <0>         0.0000
     38 H7          1.7735   -5.8804   -0.3920 H         1 <0>         0.0000
     39 H8         -0.1524   -3.9705   -0.6847 H         1 <0>         0.0000
     40 H9          0.9430   -4.4864   -1.9618 H         1 <0>         0.0000
     41 H10         4.0144   -3.1796    4.4653 H         1 <0>         0.0000
     42 H11         5.3994   -3.4390    3.3963 H         1 <0>         0.0000
     43 H12         5.8694   -5.3151    4.6450 H         1 <0>         0.0000
     44 H13         4.3104   -5.2623    5.4714 H         1 <0>         0.0000
     45 H14         4.2678   -3.2271    0.9157 H         1 <0>         0.0000
     46 H15         1.3362   -4.1106    1.1841 H         1 <0>         0.0000
     47 H16         2.5535   -4.4515    3.1073 H         1 <0>         0.0000
     48 H17         3.2283   -6.6104    3.9404 H         1 <0>         0.0000
     49 H18         3.2850   -3.6286   -2.0152 H         1 <0>         0.0000
     50 H19         3.7697   -2.2435   -1.0182 H         1 <0>         0.0000
     51 H20         2.6102   -2.0207   -2.3426 H         1 <0>         0.0000
     52 H21         6.2005   -5.2008    2.0953 H         1 <0>         0.0000
     53 H22         5.3355   -5.0069    0.5586 H         1 <0>         0.0000
     54 H23         5.7248   -6.6306    1.1587 H         1 <0>         0.0000
     55 H24         3.4984   -8.9472    2.9564 H         1 <0>         0.0000
     56 H25         5.1358   -9.5663    2.6762 H         1 <0>         0.0000
     57 H26         4.4862   -8.2713    1.6553 H         1 <0>         0.0000
     58 H27         5.5287  -10.0770    6.1056 H         1 <0>         0.0000
     59 H28         4.7911  -10.2770    4.5294 H         1 <0>         0.0000
     60 H29         5.8943   -7.6456    5.6465 H         1 <0>         0.0000
     61 H30         4.1882   -8.0715    5.5705 H         1 <0>         0.0000
     62 H31         7.6784   -9.3694    5.0327 H         1 <0>         0.0000
     63 H32         6.9363   -9.6005    3.4285 H         1 <0>         0.0000
     64 H33         6.0978   -7.3661    3.3127 H         1 <0>         0.0000
@<TRIPOS>BOND
     1    1    3 2
     2    1    4 1
     3    2    4 2
     4    2    5 1
     5    3   12 1
     6    4   16 1
     7    5    7 1
     8    5   26 2
     9    6    8 1
    10    6   17 1
    11    6   27 2
    12    7    9 1
    13    8   13 1
    14    9   16 1
    15   10   11 1
    16   10   14 1
    17   11   15 1
    18   12   13 1
    19   12   14 1
    20   13   16 1
    21   14   17 1
    22   15   17 1
    23   15   24 1
    24   16   18 1
    25   17   19 1
    26   20   24 1
    27   21   22 1
    28   21   23 1
    29   22   24 1
    30   23   30 1
    31   25   31 1
    32   28   31 2
    33   29   31 2
    34   30   31 1
    35    1   32 1
    36    2   33 1
    37    3   34 1
    38    7   35 1
    39    7   36 1
    40    8   37 1
    41    8   38 1
    42    9   39 1
    43    9   40 1
    44   10   41 1
    45   10   42 1
    46   11   43 1
    47   11   44 1
    48   12   45 1
    49   13   46 1
    50   14   47 1
    51   15   48 1
    52   18   49 1
    53   18   50 1
    54   18   51 1
    55   19   52 1
    56   19   53 1
    57   19   54 1
    58   20   55 1
    59   20   56 1
    60   20   57 1
    61   21   58 1
    62   21   59 1
    63   22   60 1
    64   22   61 1
    65   23   62 1
    66   23   63 1
    67   24   64 1

@<TRIPOS>MOLECULE
DKPES_CSD_MMMF_1_32
   64    67     0     0     0
SMALL
USER_CHARGES

@<TRIPOS>ATOM
      1 C1          2.0121   -1.2143    1.2319 C.2       1 <0>        -0.1500
      2 C2          0.3162   -0.9298   -0.4630 C.2       1 <0>        -0.1356
      3 C3          2.9245   -1.9459    1.8863 C.2       1 <0>        -0.2882
      4 C4          1.3270   -1.6661    0.0290 C.2       1 <0>        -0.1382
      5 C5         -0.4261   -1.3440   -1.6772 C.2       1 <0>         0.4946
      6 C6          3.0520   -6.2645    1.2605 C.2       1 <0>         0.4480
      7 C7         -0.0521   -2.6371   -2.3563 C.3       1 <0>         0.0610
      8 C8          2.6249   -5.3856    0.0869 C.3       1 <0>         0.0610
      9 C9          0.6099   -3.6118   -1.3906 C.3       1 <0>         0.0000
     10 C10         4.4784   -3.8939    3.7777 C.3       1 <0>         0.0000
     11 C11         4.7891   -5.2227    4.4865 C.3       1 <0>         0.0000
     12 C12         3.3262   -3.3340    1.4645 C.3       1 <0>         0.1382
     13 C13         2.2273   -3.9675    0.5485 C.3       1 <0>         0.0000
     14 C14         3.5426   -4.2948    2.6428 C.3       1 <0>         0.0000
     15 C15         4.2322   -6.3446    3.5783 C.3       1 <0>         0.0000
     16 C16         1.7910   -2.9885   -0.5996 C.3       1 <0>         0.1382
     17 C17         4.0987   -5.6679    2.1953 C.3       1 <0>         0.0610
     18 C18         2.9581   -2.6968   -1.5724 C.3       1 <0>         0.0000
     19 C19         5.4441   -5.6231    1.4437 C.3       1 <0>         0.0000
     20 C20         4.2804   -8.7995    3.0961 C.3       1 <0>         0.0000
     21 C21         6.7528   -8.8904    5.1075 C.3       1 <0>         0.0000
     22 C22         5.5625   -7.9310    5.0711 C.3       1 <0>         0.0000
     23 C23         7.9642   -8.3055    4.3930 C.3       1 <0>         0.2800
     24 C24         5.0782   -7.6104    3.6426 C.3       1 <0>         0.0000
     25 O1         10.0891   -7.9365    6.2752 O.3       1 <0>        -0.8167
     26 O2         -1.3014   -0.6098   -2.1336 O.2       1 <0>        -0.5700
     27 O3          2.6287   -7.4120    1.3872 O.2       1 <0>        -0.5700
     28 O4         11.1690   -9.9626    5.4089 O.2       1 <0>        -0.8167
     29 O5          9.1235  -10.1479    6.7517 O.2       1 <0>        -0.8167
     30 O6          9.0374   -9.2334    4.4739 O.3       1 <0>        -0.4637
     31 S1          9.9285   -9.3260    5.8493 S.o2      1 <0>         1.6337
     32 H1          1.7714   -0.2251    1.6135 H         1 <0>         0.1500
     33 H2          0.0003    0.0002   -0.0001 H         1 <0>         0.1500
     34 H3          3.4155   -1.5047    2.7491 H         1 <0>         0.1500
     35 H4         -0.9660   -3.0949   -2.7512 H         1 <0>         0.0000
     36 H5          0.6022   -2.4064   -3.2029 H         1 <0>         0.0000
     37 H6          3.4445   -5.3628   -0.6369 H         1 <0>         0.0000
     38 H7          1.7735   -5.8804   -0.3920 H         1 <0>         0.0000
     39 H8         -0.1524   -3.9705   -0.6847 H         1 <0>         0.0000
     40 H9          0.9430   -4.4864   -1.9618 H         1 <0>         0.0000
     41 H10         4.0144   -3.1796    4.4653 H         1 <0>         0.0000
     42 H11         5.3994   -3.4390    3.3963 H         1 <0>         0.0000
     43 H12         5.8694   -5.3151    4.6450 H         1 <0>         0.0000
     44 H13         4.3104   -5.2623    5.4714 H         1 <0>         0.0000
     45 H14         4.2678   -3.2271    0.9157 H         1 <0>         0.0000
     46 H15         1.3362   -4.1106    1.1841 H         1 <0>         0.0000
     47 H16         2.5535   -4.4515    3.1073 H         1 <0>         0.0000
     48 H17         3.2283   -6.6104    3.9404 H         1 <0>         0.0000
     49 H18         3.2850   -3.6286   -2.0152 H         1 <0>         0.0000
     50 H19         3.7697   -2.2435   -1.0182 H         1 <0>         0.0000
     51 H20         2.6102   -2.0207   -2.3426 H         1 <0>         0.0000
     52 H21         6.2005   -5.2008    2.0953 H         1 <0>         0.0000
     53 H22         5.3355   -5.0069    0.5586 H         1 <0>         0.0000
     54 H23         5.7248   -6.6306    1.1587 H         1 <0>         0.0000
     55 H24         3.3864   -8.9844    3.7009 H         1 <0>         0.0000
     56 H25         4.8837   -9.7137    3.0936 H         1 <0>         0.0000
     57 H26         3.9524   -8.6071    2.0692 H         1 <0>         0.0000
     58 H27         7.0328   -9.1244    6.1408 H         1 <0>         0.0000
     59 H28         6.4845   -9.8470    4.6422 H         1 <0>         0.0000
     60 H29         5.8507   -6.9957    5.5683 H         1 <0>         0.0000
     61 H30         4.7356   -8.3548    5.6550 H         1 <0>         0.0000
     62 H31         8.2785   -7.3677    4.8620 H         1 <0>         0.0000
     63 H32         7.7438   -8.1201    3.3369 H         1 <0>         0.0000
     64 H33         5.9579   -7.4756    2.9974 H         1 <0>         0.0000
@<TRIPOS>BOND
     1    1    3 2
     2    1    4 1
     3    2    4 2
     4    2    5 1
     5    3   12 1
     6    4   16 1
     7    5    7 1
     8    5   26 2
     9    6    8 1
    10    6   17 1
    11    6   27 2
    12    7    9 1
    13    8   13 1
    14    9   16 1
    15   10   11 1
    16   10   14 1
    17   11   15 1
    18   12   13 1
    19   12   14 1
    20   13   16 1
    21   14   17 1
    22   15   17 1
    23   15   24 1
    24   16   18 1
    25   17   19 1
    26   20   24 1
    27   21   22 1
    28   21   23 1
    29   22   24 1
    30   23   30 1
    31   25   31 1
    32   28   31 2
    33   29   31 2
    34   30   31 1
    35    1   32 1
    36    2   33 1
    37    3   34 1
    38    7   35 1
    39    7   36 1
    40    8   37 1
    41    8   38 1
    42    9   39 1
    43    9   40 1
    44   10   41 1
    45   10   42 1
    46   11   43 1
    47   11   44 1
    48   12   45 1
    49   13   46 1
    50   14   47 1
    51   15   48 1
    52   18   49 1
    53   18   50 1
    54   18   51 1
    55   19   52 1
    56   19   53 1
    57   19   54 1
    58   20   55 1
    59   20   56 1
    60   20   57 1
    61   21   58 1
    62   21   59 1
    63   22   60 1
    64   22   61 1
    65   23   62 1
    66   23   63 1
    67   24   64 1

@<TRIPOS>MOLECULE
DKPES_CSD_MMMF_1_26
   64    67     0     0     0
SMALL
USER_CHARGES

@<TRIPOS>ATOM
      1 C1          2.0121   -1.2143    1.2319 C.2       1 <0>        -0.1500
      2 C2          0.3162   -0.9298   -0.4630 C.2       1 <0>        -0.1356
      3 C3          2.9245   -1.9459    1.8863 C.2       1 <0>        -0.2882
      4 C4          1.3270   -1.6661    0.0290 C.2       1 <0>        -0.1382
      5 C5         -0.4261   -1.3440   -1.6772 C.2       1 <0>         0.4946
      6 C6          3.0520   -6.2645    1.2605 C.2       1 <0>         0.4480
      7 C7         -0.0521   -2.6371   -2.3563 C.3       1 <0>         0.0610
      8 C8          2.6249   -5.3856    0.0869 C.3       1 <0>         0.0610
      9 C9          0.6099   -3.6118   -1.3906 C.3       1 <0>         0.0000
     10 C10         4.4784   -3.8939    3.7777 C.3       1 <0>         0.0000
     11 C11         4.7891   -5.2227    4.4865 C.3       1 <0>         0.0000
     12 C12         3.3262   -3.3340    1.4645 C.3       1 <0>         0.1382
     13 C13         2.2273   -3.9675    0.5485 C.3       1 <0>         0.0000
     14 C14         3.5426   -4.2948    2.6428 C.3       1 <0>         0.0000
     15 C15         4.2322   -6.3446    3.5783 C.3       1 <0>         0.0000
     16 C16         1.7910   -2.9885   -0.5996 C.3       1 <0>         0.1382
     17 C17         4.0987   -5.6679    2.1953 C.3       1 <0>         0.0610
     18 C18         2.9581   -2.6968   -1.5724 C.3       1 <0>         0.0000
     19 C19         5.4441   -5.6231    1.4437 C.3       1 <0>         0.0000
     20 C20         4.6826   -8.4407    4.8686 C.3       1 <0>         0.0000
     21 C21         7.4569   -8.5116    3.2985 C.3       1 <0>         0.0000
     22 C22         6.5907   -7.3138    3.6905 C.3       1 <0>         0.0000
     23 C23         8.9411   -8.1821    3.3905 C.3       1 <0>         0.2800
     24 C24         5.0782   -7.6104    3.6426 C.3       1 <0>         0.0000
     25 O1         10.2091  -10.0104    5.1914 O.3       1 <0>        -0.8167
     26 O2         -1.3014   -0.6098   -2.1336 O.2       1 <0>        -0.5700
     27 O3          2.6287   -7.4120    1.3872 O.2       1 <0>        -0.5700
     28 O4          8.0937   -9.3322    6.2339 O.2       1 <0>        -0.8167
     29 O5         10.1951   -8.2793    6.9385 O.2       1 <0>        -0.8167
     30 O6          9.2450   -7.8001    4.7250 O.3       1 <0>        -0.4637
     31 S1          9.4591   -8.9553    5.8713 S.o2      1 <0>         1.6337
     32 H1          1.7714   -0.2251    1.6135 H         1 <0>         0.1500
     33 H2          0.0003    0.0002   -0.0001 H         1 <0>         0.1500
     34 H3          3.4155   -1.5047    2.7491 H         1 <0>         0.1500
     35 H4         -0.9660   -3.0949   -2.7512 H         1 <0>         0.0000
     36 H5          0.6022   -2.4064   -3.2029 H         1 <0>         0.0000
     37 H6          3.4445   -5.3628   -0.6369 H         1 <0>         0.0000
     38 H7          1.7735   -5.8804   -0.3920 H         1 <0>         0.0000
     39 H8         -0.1524   -3.9705   -0.6847 H         1 <0>         0.0000
     40 H9          0.9430   -4.4864   -1.9618 H         1 <0>         0.0000
     41 H10         4.0144   -3.1796    4.4653 H         1 <0>         0.0000
     42 H11         5.3994   -3.4390    3.3963 H         1 <0>         0.0000
     43 H12         5.8694   -5.3151    4.6450 H         1 <0>         0.0000
     44 H13         4.3104   -5.2623    5.4714 H         1 <0>         0.0000
     45 H14         4.2678   -3.2271    0.9157 H         1 <0>         0.0000
     46 H15         1.3362   -4.1106    1.1841 H         1 <0>         0.0000
     47 H16         2.5535   -4.4515    3.1073 H         1 <0>         0.0000
     48 H17         3.2283   -6.6104    3.9404 H         1 <0>         0.0000
     49 H18         3.2850   -3.6286   -2.0152 H         1 <0>         0.0000
     50 H19         3.7697   -2.2435   -1.0182 H         1 <0>         0.0000
     51 H20         2.6102   -2.0207   -2.3426 H         1 <0>         0.0000
     52 H21         6.2005   -5.2008    2.0953 H         1 <0>         0.0000
     53 H22         5.3355   -5.0069    0.5586 H         1 <0>         0.0000
     54 H23         5.7248   -6.6306    1.1587 H         1 <0>         0.0000
     55 H24         4.8689   -7.8872    5.7950 H         1 <0>         0.0000
     56 H25         5.2494   -9.3769    4.9126 H         1 <0>         0.0000
     57 H26         3.6169   -8.6907    4.8400 H         1 <0>         0.0000
     58 H27         7.2468   -9.3719    3.9440 H         1 <0>         0.0000
     59 H28         7.2199   -8.8342    2.2771 H         1 <0>         0.0000
     60 H29         6.8129   -6.4825    3.0088 H         1 <0>         0.0000
     61 H30         6.8694   -6.9772    4.6971 H         1 <0>         0.0000
     62 H31         9.1987   -7.3530    2.7237 H         1 <0>         0.0000
     63 H32         9.5521   -9.0523    3.1303 H         1 <0>         0.0000
     64 H33         4.8690   -8.2160    2.7494 H         1 <0>         0.0000
@<TRIPOS>BOND
     1    1    3 2
     2    1    4 1
     3    2    4 2
     4    2    5 1
     5    3   12 1
     6    4   16 1
     7    5    7 1
     8    5   26 2
     9    6    8 1
    10    6   17 1
    11    6   27 2
    12    7    9 1
    13    8   13 1
    14    9   16 1
    15   10   11 1
    16   10   14 1
    17   11   15 1
    18   12   13 1
    19   12   14 1
    20   13   16 1
    21   14   17 1
    22   15   17 1
    23   15   24 1
    24   16   18 1
    25   17   19 1
    26   20   24 1
    27   21   22 1
    28   21   23 1
    29   22   24 1
    30   23   30 1
    31   25   31 1
    32   28   31 2
    33   29   31 2
    34   30   31 1
    35    1   32 1
    36    2   33 1
    37    3   34 1
    38    7   35 1
    39    7   36 1
    40    8   37 1
    41    8   38 1
    42    9   39 1
    43    9   40 1
    44   10   41 1
    45   10   42 1
    46   11   43 1
    47   11   44 1
    48   12   45 1
    49   13   46 1
    50   14   47 1
    51   15   48 1
    52   18   49 1
    53   18   50 1
    54   18   51 1
    55   19   52 1
    56   19   53 1
    57   19   54 1
    58   20   55 1
    59   20   56 1
    60   20   57 1
    61   21   58 1
    62   21   59 1
    63   22   60 1
    64   22   61 1
    65   23   62 1
    66   23   63 1
    67   24   64 1

@<TRIPOS>MOLECULE
DKPES_CSD_MMMF_1_4
   64    67     0     0     0
SMALL
USER_CHARGES

@<TRIPOS>ATOM
      1 C1          2.0121   -1.2143    1.2319 C.2       1 <0>        -0.1500
      2 C2          0.3162   -0.9298   -0.4630 C.2       1 <0>        -0.1356
      3 C3          2.9245   -1.9459    1.8863 C.2       1 <0>        -0.2882
      4 C4          1.3270   -1.6661    0.0290 C.2       1 <0>        -0.1382
      5 C5         -0.4261   -1.3440   -1.6772 C.2       1 <0>         0.4946
      6 C6          3.0520   -6.2645    1.2605 C.2       1 <0>         0.4480
      7 C7         -0.0521   -2.6371   -2.3563 C.3       1 <0>         0.0610
      8 C8          2.6249   -5.3856    0.0869 C.3       1 <0>         0.0610
      9 C9          0.6099   -3.6118   -1.3906 C.3       1 <0>         0.0000
     10 C10         4.4784   -3.8939    3.7777 C.3       1 <0>         0.0000
     11 C11         4.7891   -5.2227    4.4865 C.3       1 <0>         0.0000
     12 C12         3.3262   -3.3340    1.4645 C.3       1 <0>         0.1382
     13 C13         2.2273   -3.9675    0.5485 C.3       1 <0>         0.0000
     14 C14         3.5426   -4.2948    2.6428 C.3       1 <0>         0.0000
     15 C15         4.2322   -6.3446    3.5783 C.3       1 <0>         0.0000
     16 C16         1.7910   -2.9885   -0.5996 C.3       1 <0>         0.1382
     17 C17         4.0987   -5.6679    2.1953 C.3       1 <0>         0.0610
     18 C18         2.9581   -2.6968   -1.5724 C.3       1 <0>         0.0000
     19 C19         5.4441   -5.6231    1.4437 C.3       1 <0>         0.0000
     20 C20         4.5183   -8.6617    2.6779 C.3       1 <0>         0.0000
     21 C21         5.9758   -9.4919    5.1403 C.3       1 <0>         0.0000
     22 C22         5.1520   -8.2058    5.0632 C.3       1 <0>         0.0000
     23 C23         7.4225   -9.2547    4.7271 C.3       1 <0>         0.2800
     24 C24         5.0782   -7.6104    3.6426 C.3       1 <0>         0.0000
     25 O1         10.1240  -11.9134    4.6745 O.3       1 <0>        -0.8167
     26 O2         -1.3014   -0.6098   -2.1336 O.2       1 <0>        -0.5700
     27 O3          2.6287   -7.4120    1.3872 O.2       1 <0>        -0.5700
     28 O4         10.3345   -9.5738    5.3843 O.2       1 <0>        -0.8167
     29 O5          9.7833  -10.0973    3.0512 O.2       1 <0>        -0.8167
     30 O6          8.1372  -10.4782    4.8338 O.3       1 <0>        -0.4637
     31 S1          9.7323  -10.5228    4.4491 S.o2      1 <0>         1.6337
     32 H1          1.7714   -0.2251    1.6135 H         1 <0>         0.1500
     33 H2          0.0003    0.0002   -0.0001 H         1 <0>         0.1500
     34 H3          3.4155   -1.5047    2.7491 H         1 <0>         0.1500
     35 H4         -0.9660   -3.0949   -2.7512 H         1 <0>         0.0000
     36 H5          0.6022   -2.4064   -3.2029 H         1 <0>         0.0000
     37 H6          3.4445   -5.3628   -0.6369 H         1 <0>         0.0000
     38 H7          1.7735   -5.8804   -0.3920 H         1 <0>         0.0000
     39 H8         -0.1524   -3.9705   -0.6847 H         1 <0>         0.0000
     40 H9          0.9430   -4.4864   -1.9618 H         1 <0>         0.0000
     41 H10         4.0144   -3.1796    4.4653 H         1 <0>         0.0000
     42 H11         5.3994   -3.4390    3.3963 H         1 <0>         0.0000
     43 H12         5.8694   -5.3151    4.6450 H         1 <0>         0.0000
     44 H13         4.3104   -5.2623    5.4714 H         1 <0>         0.0000
     45 H14         4.2678   -3.2271    0.9157 H         1 <0>         0.0000
     46 H15         1.3362   -4.1106    1.1841 H         1 <0>         0.0000
     47 H16         2.5535   -4.4515    3.1073 H         1 <0>         0.0000
     48 H17         3.2283   -6.6104    3.9404 H         1 <0>         0.0000
     49 H18         3.2850   -3.6286   -2.0152 H         1 <0>         0.0000
     50 H19         3.7697   -2.2435   -1.0182 H         1 <0>         0.0000
     51 H20         2.6102   -2.0207   -2.3426 H         1 <0>         0.0000
     52 H21         6.2005   -5.2008    2.0953 H         1 <0>         0.0000
     53 H22         5.3355   -5.0069    0.5586 H         1 <0>         0.0000
     54 H23         5.7248   -6.6306    1.1587 H         1 <0>         0.0000
     55 H24         3.4984   -8.9472    2.9564 H         1 <0>         0.0000
     56 H25         5.1358   -9.5663    2.6762 H         1 <0>         0.0000
     57 H26         4.4862   -8.2713    1.6553 H         1 <0>         0.0000
     58 H27         5.9628   -9.9021    6.1564 H         1 <0>         0.0000
     59 H28         5.5368  -10.2638    4.4961 H         1 <0>         0.0000
     60 H29         5.5971   -7.4633    5.7383 H         1 <0>         0.0000
     61 H30         4.1381   -8.4002    5.4353 H         1 <0>         0.0000
     62 H31         7.8983   -8.5154    5.3792 H         1 <0>         0.0000
     63 H32         7.4815   -8.9069    3.6908 H         1 <0>         0.0000
     64 H33         6.0978   -7.3661    3.3127 H         1 <0>         0.0000
@<TRIPOS>BOND
     1    1    3 2
     2    1    4 1
     3    2    4 2
     4    2    5 1
     5    3   12 1
     6    4   16 1
     7    5    7 1
     8    5   26 2
     9    6    8 1
    10    6   17 1
    11    6   27 2
    12    7    9 1
    13    8   13 1
    14    9   16 1
    15   10   11 1
    16   10   14 1
    17   11   15 1
    18   12   13 1
    19   12   14 1
    20   13   16 1
    21   14   17 1
    22   15   17 1
    23   15   24 1
    24   16   18 1
    25   17   19 1
    26   20   24 1
    27   21   22 1
    28   21   23 1
    29   22   24 1
    30   23   30 1
    31   25   31 1
    32   28   31 2
    33   29   31 2
    34   30   31 1
    35    1   32 1
    36    2   33 1
    37    3   34 1
    38    7   35 1
    39    7   36 1
    40    8   37 1
    41    8   38 1
    42    9   39 1
    43    9   40 1
    44   10   41 1
    45   10   42 1
    46   11   43 1
    47   11   44 1
    48   12   45 1
    49   13   46 1
    50   14   47 1
    51   15   48 1
    52   18   49 1
    53   18   50 1
    54   18   51 1
    55   19   52 1
    56   19   53 1
    57   19   54 1
    58   20   55 1
    59   20   56 1
    60   20   57 1
    61   21   58 1
    62   21   59 1
    63   22   60 1
    64   22   61 1
    65   23   62 1
    66   23   63 1
    67   24   64 1

@<TRIPOS>MOLECULE
DKPES_CSD_MMMF_1_18
   64    67     0     0     0
SMALL
USER_CHARGES

@<TRIPOS>ATOM
      1 C1          2.0121   -1.2143    1.2319 C.2       1 <0>        -0.1500
      2 C2          0.3162   -0.9298   -0.4630 C.2       1 <0>        -0.1356
      3 C3          2.9245   -1.9459    1.8863 C.2       1 <0>        -0.2882
      4 C4          1.3270   -1.6661    0.0290 C.2       1 <0>        -0.1382
      5 C5         -0.4261   -1.3440   -1.6772 C.2       1 <0>         0.4946
      6 C6          3.0520   -6.2645    1.2605 C.2       1 <0>         0.4480
      7 C7         -0.0521   -2.6371   -2.3563 C.3       1 <0>         0.0610
      8 C8          2.6249   -5.3856    0.0869 C.3       1 <0>         0.0610
      9 C9          0.6099   -3.6118   -1.3906 C.3       1 <0>         0.0000
     10 C10         4.4784   -3.8939    3.7777 C.3       1 <0>         0.0000
     11 C11         4.7891   -5.2227    4.4865 C.3       1 <0>         0.0000
     12 C12         3.3262   -3.3340    1.4645 C.3       1 <0>         0.1382
     13 C13         2.2273   -3.9675    0.5485 C.3       1 <0>         0.0000
     14 C14         3.5426   -4.2948    2.6428 C.3       1 <0>         0.0000
     15 C15         4.2322   -6.3446    3.5783 C.3       1 <0>         0.0000
     16 C16         1.7910   -2.9885   -0.5996 C.3       1 <0>         0.1382
     17 C17         4.0987   -5.6679    2.1953 C.3       1 <0>         0.0610
     18 C18         2.9581   -2.6968   -1.5724 C.3       1 <0>         0.0000
     19 C19         5.4441   -5.6231    1.4437 C.3       1 <0>         0.0000
     20 C20         4.5183   -8.6617    2.6779 C.3       1 <0>         0.0000
     21 C21         5.9758   -9.4919    5.1403 C.3       1 <0>         0.0000
     22 C22         5.1520   -8.2058    5.0632 C.3       1 <0>         0.0000
     23 C23         7.4225   -9.2547    4.7271 C.3       1 <0>         0.2800
     24 C24         5.0782   -7.6104    3.6426 C.3       1 <0>         0.0000
     25 O1          9.1591  -10.0217    6.8694 O.3       1 <0>        -0.8167
     26 O2         -1.3014   -0.6098   -2.1336 O.2       1 <0>        -0.5700
     27 O3          2.6287   -7.4120    1.3872 O.2       1 <0>        -0.5700
     28 O4          7.2927   -8.7830    7.8713 O.2       1 <0>        -0.8167
     29 O5          9.4353   -7.6542    7.4762 O.2       1 <0>        -0.8167
     30 O6          7.9926   -8.2799    5.5896 O.3       1 <0>        -0.4637
     31 S1          8.5203   -8.7233    7.0793 S.o2      1 <0>         1.6337
     32 H1          1.7714   -0.2251    1.6135 H         1 <0>         0.1500
     33 H2          0.0003    0.0002   -0.0001 H         1 <0>         0.1500
     34 H3          3.4155   -1.5047    2.7491 H         1 <0>         0.1500
     35 H4         -0.9660   -3.0949   -2.7512 H         1 <0>         0.0000
     36 H5          0.6022   -2.4064   -3.2029 H         1 <0>         0.0000
     37 H6          3.4445   -5.3628   -0.6369 H         1 <0>         0.0000
     38 H7          1.7735   -5.8804   -0.3920 H         1 <0>         0.0000
     39 H8         -0.1524   -3.9705   -0.6847 H         1 <0>         0.0000
     40 H9          0.9430   -4.4864   -1.9618 H         1 <0>         0.0000
     41 H10         4.0144   -3.1796    4.4653 H         1 <0>         0.0000
     42 H11         5.3994   -3.4390    3.3963 H         1 <0>         0.0000
     43 H12         5.8694   -5.3151    4.6450 H         1 <0>         0.0000
     44 H13         4.3104   -5.2623    5.4714 H         1 <0>         0.0000
     45 H14         4.2678   -3.2271    0.9157 H         1 <0>         0.0000
     46 H15         1.3362   -4.1106    1.1841 H         1 <0>         0.0000
     47 H16         2.5535   -4.4515    3.1073 H         1 <0>         0.0000
     48 H17         3.2283   -6.6104    3.9404 H         1 <0>         0.0000
     49 H18         3.2850   -3.6286   -2.0152 H         1 <0>         0.0000
     50 H19         3.7697   -2.2435   -1.0182 H         1 <0>         0.0000
     51 H20         2.6102   -2.0207   -2.3426 H         1 <0>         0.0000
     52 H21         6.2005   -5.2008    2.0953 H         1 <0>         0.0000
     53 H22         5.3355   -5.0069    0.5586 H         1 <0>         0.0000
     54 H23         5.7248   -6.6306    1.1587 H         1 <0>         0.0000
     55 H24         3.4984   -8.9472    2.9564 H         1 <0>         0.0000
     56 H25         5.1358   -9.5663    2.6762 H         1 <0>         0.0000
     57 H26         4.4862   -8.2713    1.6553 H         1 <0>         0.0000
     58 H27         5.9628   -9.9021    6.1564 H         1 <0>         0.0000
     59 H28         5.5368  -10.2638    4.4961 H         1 <0>         0.0000
     60 H29         5.5971   -7.4633    5.7383 H         1 <0>         0.0000
     61 H30         4.1381   -8.4002    5.4353 H         1 <0>         0.0000
     62 H31         7.4787   -8.8849    3.6983 H         1 <0>         0.0000
     63 H32         8.0085  -10.1757    4.8078 H         1 <0>         0.0000
     64 H33         6.0978   -7.3661    3.3127 H         1 <0>         0.0000
@<TRIPOS>BOND
     1    1    3 2
     2    1    4 1
     3    2    4 2
     4    2    5 1
     5    3   12 1
     6    4   16 1
     7    5    7 1
     8    5   26 2
     9    6    8 1
    10    6   17 1
    11    6   27 2
    12    7    9 1
    13    8   13 1
    14    9   16 1
    15   10   11 1
    16   10   14 1
    17   11   15 1
    18   12   13 1
    19   12   14 1
    20   13   16 1
    21   14   17 1
    22   15   17 1
    23   15   24 1
    24   16   18 1
    25   17   19 1
    26   20   24 1
    27   21   22 1
    28   21   23 1
    29   22   24 1
    30   23   30 1
    31   25   31 1
    32   28   31 2
    33   29   31 2
    34   30   31 1
    35    1   32 1
    36    2   33 1
    37    3   34 1
    38    7   35 1
    39    7   36 1
    40    8   37 1
    41    8   38 1
    42    9   39 1
    43    9   40 1
    44   10   41 1
    45   10   42 1
    46   11   43 1
    47   11   44 1
    48   12   45 1
    49   13   46 1
    50   14   47 1
    51   15   48 1
    52   18   49 1
    53   18   50 1
    54   18   51 1
    55   19   52 1
    56   19   53 1
    57   19   54 1
    58   20   55 1
    59   20   56 1
    60   20   57 1
    61   21   58 1
    62   21   59 1
    63   22   60 1
    64   22   61 1
    65   23   62 1
    66   23   63 1
    67   24   64 1

@<TRIPOS>MOLECULE
DKPES_CSD_MMMF_1_0
   64    67     0     0     0
SMALL
USER_CHARGES

@<TRIPOS>ATOM
      1 C1          2.0121   -1.2143    1.2319 C.2       1 <0>        -0.1500
      2 C2          0.3162   -0.9298   -0.4630 C.2       1 <0>        -0.1356
      3 C3          2.9245   -1.9459    1.8863 C.2       1 <0>        -0.2882
      4 C4          1.3270   -1.6661    0.0290 C.2       1 <0>        -0.1382
      5 C5         -0.4261   -1.3440   -1.6772 C.2       1 <0>         0.4946
      6 C6          3.0520   -6.2645    1.2605 C.2       1 <0>         0.4480
      7 C7         -0.0521   -2.6371   -2.3563 C.3       1 <0>         0.0610
      8 C8          2.6249   -5.3856    0.0869 C.3       1 <0>         0.0610
      9 C9          0.6099   -3.6118   -1.3906 C.3       1 <0>         0.0000
     10 C10         4.4784   -3.8939    3.7777 C.3       1 <0>         0.0000
     11 C11         4.7891   -5.2227    4.4865 C.3       1 <0>         0.0000
     12 C12         3.3262   -3.3340    1.4645 C.3       1 <0>         0.1382
     13 C13         2.2273   -3.9675    0.5485 C.3       1 <0>         0.0000
     14 C14         3.5426   -4.2948    2.6428 C.3       1 <0>         0.0000
     15 C15         4.2322   -6.3446    3.5783 C.3       1 <0>         0.0000
     16 C16         1.7910   -2.9885   -0.5996 C.3       1 <0>         0.1382
     17 C17         4.0987   -5.6679    2.1953 C.3       1 <0>         0.0610
     18 C18         2.9581   -2.6968   -1.5724 C.3       1 <0>         0.0000
     19 C19         5.4441   -5.6231    1.4437 C.3       1 <0>         0.0000
     20 C20         4.5183   -8.6617    2.6779 C.3       1 <0>         0.0000
     21 C21         6.3229   -9.1702    5.2571 C.3       1 <0>         0.0000
     22 C22         5.1520   -8.2058    5.0632 C.3       1 <0>         0.0000
     23 C23         6.3373   -9.7563    6.6629 C.3       1 <0>         0.2800
     24 C24         5.0782   -7.6104    3.6426 C.3       1 <0>         0.0000
     25 O1          8.8862  -12.2533    7.9425 O.3       1 <0>        -0.8167
     26 O2         -1.3014   -0.6098   -2.1336 O.2       1 <0>        -0.5700
     27 O3          2.6287   -7.4120    1.3872 O.2       1 <0>        -0.5700
     28 O4          6.4736  -12.2095    8.3883 O.2       1 <0>        -0.8167
     29 O5          7.8939  -10.3682    9.1717 O.2       1 <0>        -0.8167
     30 O6          7.4346  -10.6521    6.7758 O.3       1 <0>        -0.4637
     31 S1          7.6994  -11.4369    8.1929 S.o2      1 <0>         1.6337
     32 H1          1.7714   -0.2251    1.6135 H         1 <0>         0.1500
     33 H2          0.0003    0.0002   -0.0001 H         1 <0>         0.1500
     34 H3          3.4155   -1.5047    2.7491 H         1 <0>         0.1500
     35 H4         -0.9660   -3.0949   -2.7512 H         1 <0>         0.0000
     36 H5          0.6022   -2.4064   -3.2029 H         1 <0>         0.0000
     37 H6          3.4445   -5.3628   -0.6369 H         1 <0>         0.0000
     38 H7          1.7735   -5.8804   -0.3920 H         1 <0>         0.0000
     39 H8         -0.1524   -3.9705   -0.6847 H         1 <0>         0.0000
     40 H9          0.9430   -4.4864   -1.9618 H         1 <0>         0.0000
     41 H10         4.0144   -3.1796    4.4653 H         1 <0>         0.0000
     42 H11         5.3994   -3.4390    3.3963 H         1 <0>         0.0000
     43 H12         5.8694   -5.3151    4.6450 H         1 <0>         0.0000
     44 H13         4.3104   -5.2623    5.4714 H         1 <0>         0.0000
     45 H14         4.2678   -3.2271    0.9157 H         1 <0>         0.0000
     46 H15         1.3362   -4.1106    1.1841 H         1 <0>         0.0000
     47 H16         2.5535   -4.4515    3.1073 H         1 <0>         0.0000
     48 H17         3.2283   -6.6104    3.9404 H         1 <0>         0.0000
     49 H18         3.2850   -3.6286   -2.0152 H         1 <0>         0.0000
     50 H19         3.7697   -2.2435   -1.0182 H         1 <0>         0.0000
     51 H20         2.6102   -2.0207   -2.3426 H         1 <0>         0.0000
     52 H21         6.2005   -5.2008    2.0953 H         1 <0>         0.0000
     53 H22         5.3355   -5.0069    0.5586 H         1 <0>         0.0000
     54 H23         5.7248   -6.6306    1.1587 H         1 <0>         0.0000
     55 H24         3.4984   -8.9472    2.9564 H         1 <0>         0.0000
     56 H25         5.1358   -9.5663    2.6762 H         1 <0>         0.0000
     57 H26         4.4862   -8.2713    1.6553 H         1 <0>         0.0000
     58 H27         6.2743   -9.9919    4.5337 H         1 <0>         0.0000
     59 H28         7.2737   -8.6565    5.0689 H         1 <0>         0.0000
     60 H29         5.2482   -7.3872    5.7883 H         1 <0>         0.0000
     61 H30         4.2124   -8.7226    5.2963 H         1 <0>         0.0000
     62 H31         5.4142  -10.3091    6.8645 H         1 <0>         0.0000
     63 H32         6.4529   -8.9686    7.4141 H         1 <0>         0.0000
     64 H33         6.0978   -7.3661    3.3127 H         1 <0>         0.0000
@<TRIPOS>BOND
     1    1    3 2
     2    1    4 1
     3    2    4 2
     4    2    5 1
     5    3   12 1
     6    4   16 1
     7    5    7 1
     8    5   26 2
     9    6    8 1
    10    6   17 1
    11    6   27 2
    12    7    9 1
    13    8   13 1
    14    9   16 1
    15   10   11 1
    16   10   14 1
    17   11   15 1
    18   12   13 1
    19   12   14 1
    20   13   16 1
    21   14   17 1
    22   15   17 1
    23   15   24 1
    24   16   18 1
    25   17   19 1
    26   20   24 1
    27   21   22 1
    28   21   23 1
    29   22   24 1
    30   23   30 1
    31   25   31 1
    32   28   31 2
    33   29   31 2
    34   30   31 1
    35    1   32 1
    36    2   33 1
    37    3   34 1
    38    7   35 1
    39    7   36 1
    40    8   37 1
    41    8   38 1
    42    9   39 1
    43    9   40 1
    44   10   41 1
    45   10   42 1
    46   11   43 1
    47   11   44 1
    48   12   45 1
    49   13   46 1
    50   14   47 1
    51   15   48 1
    52   18   49 1
    53   18   50 1
    54   18   51 1
    55   19   52 1
    56   19   53 1
    57   19   54 1
    58   20   55 1
    59   20   56 1
    60   20   57 1
    61   21   58 1
    62   21   59 1
    63   22   60 1
    64   22   61 1
    65   23   62 1
    66   23   63 1
    67   24   64 1

@<TRIPOS>MOLECULE
DKPES_CSD_MMMF_1_18
   64    67     0     0     0
SMALL
USER_CHARGES

@<TRIPOS>ATOM
      1 C1          2.0121   -1.2143    1.2319 C.2       1 <0>        -0.1500
      2 C2          0.3162   -0.9298   -0.4630 C.2       1 <0>        -0.1356
      3 C3          2.9245   -1.9459    1.8863 C.2       1 <0>        -0.2882
      4 C4          1.3270   -1.6661    0.0290 C.2       1 <0>        -0.1382
      5 C5         -0.4261   -1.3440   -1.6772 C.2       1 <0>         0.4946
      6 C6          3.0520   -6.2645    1.2605 C.2       1 <0>         0.4480
      7 C7         -0.0521   -2.6371   -2.3563 C.3       1 <0>         0.0610
      8 C8          2.6249   -5.3856    0.0869 C.3       1 <0>         0.0610
      9 C9          0.6099   -3.6118   -1.3906 C.3       1 <0>         0.0000
     10 C10         4.4784   -3.8939    3.7777 C.3       1 <0>         0.0000
     11 C11         4.7891   -5.2227    4.4865 C.3       1 <0>         0.0000
     12 C12         3.3262   -3.3340    1.4645 C.3       1 <0>         0.1382
     13 C13         2.2273   -3.9675    0.5485 C.3       1 <0>         0.0000
     14 C14         3.5426   -4.2948    2.6428 C.3       1 <0>         0.0000
     15 C15         4.2322   -6.3446    3.5783 C.3       1 <0>         0.0000
     16 C16         1.7910   -2.9885   -0.5996 C.3       1 <0>         0.1382
     17 C17         4.0987   -5.6679    2.1953 C.3       1 <0>         0.0610
     18 C18         2.9581   -2.6968   -1.5724 C.3       1 <0>         0.0000
     19 C19         5.4441   -5.6231    1.4437 C.3       1 <0>         0.0000
     20 C20         4.5183   -8.6617    2.6779 C.3       1 <0>         0.0000
     21 C21         5.9758   -9.4919    5.1403 C.3       1 <0>         0.0000
     22 C22         5.1520   -8.2058    5.0632 C.3       1 <0>         0.0000
     23 C23         7.4225   -9.2547    4.7271 C.3       1 <0>         0.2800
     24 C24         5.0782   -7.6104    3.6426 C.3       1 <0>         0.0000
     25 O1          9.1591  -10.0217    6.8694 O.3       1 <0>        -0.8167
     26 O2         -1.3014   -0.6098   -2.1336 O.2       1 <0>        -0.5700
     27 O3          2.6287   -7.4120    1.3872 O.2       1 <0>        -0.5700
     28 O4          7.2927   -8.7830    7.8713 O.2       1 <0>        -0.8167
     29 O5          9.4353   -7.6542    7.4762 O.2       1 <0>        -0.8167
     30 O6          7.9926   -8.2799    5.5896 O.3       1 <0>        -0.4637
     31 S1          8.5203   -8.7233    7.0793 S.o2      1 <0>         1.6337
     32 H1          1.7714   -0.2251    1.6135 H         1 <0>         0.1500
     33 H2          0.0003    0.0002   -0.0001 H         1 <0>         0.1500
     34 H3          3.4155   -1.5047    2.7491 H         1 <0>         0.1500
     35 H4         -0.9660   -3.0949   -2.7512 H         1 <0>         0.0000
     36 H5          0.6022   -2.4064   -3.2029 H         1 <0>         0.0000
     37 H6          3.4445   -5.3628   -0.6369 H         1 <0>         0.0000
     38 H7          1.7735   -5.8804   -0.3920 H         1 <0>         0.0000
     39 H8         -0.1524   -3.9705   -0.6847 H         1 <0>         0.0000
     40 H9          0.9430   -4.4864   -1.9618 H         1 <0>         0.0000
     41 H10         4.0144   -3.1796    4.4653 H         1 <0>         0.0000
     42 H11         5.3994   -3.4390    3.3963 H         1 <0>         0.0000
     43 H12         5.8694   -5.3151    4.6450 H         1 <0>         0.0000
     44 H13         4.3104   -5.2623    5.4714 H         1 <0>         0.0000
     45 H14         4.2678   -3.2271    0.9157 H         1 <0>         0.0000
     46 H15         1.3362   -4.1106    1.1841 H         1 <0>         0.0000
     47 H16         2.5535   -4.4515    3.1073 H         1 <0>         0.0000
     48 H17         3.2283   -6.6104    3.9404 H         1 <0>         0.0000
     49 H18         3.2850   -3.6286   -2.0152 H         1 <0>         0.0000
     50 H19         3.7697   -2.2435   -1.0182 H         1 <0>         0.0000
     51 H20         2.6102   -2.0207   -2.3426 H         1 <0>         0.0000
     52 H21         6.2005   -5.2008    2.0953 H         1 <0>         0.0000
     53 H22         5.3355   -5.0069    0.5586 H         1 <0>         0.0000
     54 H23         5.7248   -6.6306    1.1587 H         1 <0>         0.0000
     55 H24         3.4984   -8.9472    2.9564 H         1 <0>         0.0000
     56 H25         5.1358   -9.5663    2.6762 H         1 <0>         0.0000
     57 H26         4.4862   -8.2713    1.6553 H         1 <0>         0.0000
     58 H27         5.9628   -9.9021    6.1564 H         1 <0>         0.0000
     59 H28         5.5368  -10.2638    4.4961 H         1 <0>         0.0000
     60 H29         5.5971   -7.4633    5.7383 H         1 <0>         0.0000
     61 H30         4.1381   -8.4002    5.4353 H         1 <0>         0.0000
     62 H31         7.4787   -8.8849    3.6983 H         1 <0>         0.0000
     63 H32         8.0085  -10.1757    4.8078 H         1 <0>         0.0000
     64 H33         6.0978   -7.3661    3.3127 H         1 <0>         0.0000
@<TRIPOS>BOND
     1    1    3 2
     2    1    4 1
     3    2    4 2
     4    2    5 1
     5    3   12 1
     6    4   16 1
     7    5    7 1
     8    5   26 2
     9    6    8 1
    10    6   17 1
    11    6   27 2
    12    7    9 1
    13    8   13 1
    14    9   16 1
    15   10   11 1
    16   10   14 1
    17   11   15 1
    18   12   13 1
    19   12   14 1
    20   13   16 1
    21   14   17 1
    22   15   17 1
    23   15   24 1
    24   16   18 1
    25   17   19 1
    26   20   24 1
    27   21   22 1
    28   21   23 1
    29   22   24 1
    30   23   30 1
    31   25   31 1
    32   28   31 2
    33   29   31 2
    34   30   31 1
    35    1   32 1
    36    2   33 1
    37    3   34 1
    38    7   35 1
    39    7   36 1
    40    8   37 1
    41    8   38 1
    42    9   39 1
    43    9   40 1
    44   10   41 1
    45   10   42 1
    46   11   43 1
    47   11   44 1
    48   12   45 1
    49   13   46 1
    50   14   47 1
    51   15   48 1
    52   18   49 1
    53   18   50 1
    54   18   51 1
    55   19   52 1
    56   19   53 1
    57   19   54 1
    58   20   55 1
    59   20   56 1
    60   20   57 1
    61   21   58 1
    62   21   59 1
    63   22   60 1
    64   22   61 1
    65   23   62 1
    66   23   63 1
    67   24   64 1

@<TRIPOS>MOLECULE
DKPES_CSD_MMMF_1_18
   64    67     0     0     0
SMALL
USER_CHARGES

@<TRIPOS>ATOM
      1 C1          2.0121   -1.2143    1.2319 C.2       1 <0>        -0.1500
      2 C2          0.3162   -0.9298   -0.4630 C.2       1 <0>        -0.1356
      3 C3          2.9245   -1.9459    1.8863 C.2       1 <0>        -0.2882
      4 C4          1.3270   -1.6661    0.0290 C.2       1 <0>        -0.1382
      5 C5         -0.4261   -1.3440   -1.6772 C.2       1 <0>         0.4946
      6 C6          3.0520   -6.2645    1.2605 C.2       1 <0>         0.4480
      7 C7         -0.0521   -2.6371   -2.3563 C.3       1 <0>         0.0610
      8 C8          2.6249   -5.3856    0.0869 C.3       1 <0>         0.0610
      9 C9          0.6099   -3.6118   -1.3906 C.3       1 <0>         0.0000
     10 C10         4.4784   -3.8939    3.7777 C.3       1 <0>         0.0000
     11 C11         4.7891   -5.2227    4.4865 C.3       1 <0>         0.0000
     12 C12         3.3262   -3.3340    1.4645 C.3       1 <0>         0.1382
     13 C13         2.2273   -3.9675    0.5485 C.3       1 <0>         0.0000
     14 C14         3.5426   -4.2948    2.6428 C.3       1 <0>         0.0000
     15 C15         4.2322   -6.3446    3.5783 C.3       1 <0>         0.0000
     16 C16         1.7910   -2.9885   -0.5996 C.3       1 <0>         0.1382
     17 C17         4.0987   -5.6679    2.1953 C.3       1 <0>         0.0610
     18 C18         2.9581   -2.6968   -1.5724 C.3       1 <0>         0.0000
     19 C19         5.4441   -5.6231    1.4437 C.3       1 <0>         0.0000
     20 C20         4.5183   -8.6617    2.6779 C.3       1 <0>         0.0000
     21 C21         5.9758   -9.4919    5.1403 C.3       1 <0>         0.0000
     22 C22         5.1520   -8.2058    5.0632 C.3       1 <0>         0.0000
     23 C23         7.4225   -9.2547    4.7271 C.3       1 <0>         0.2800
     24 C24         5.0782   -7.6104    3.6426 C.3       1 <0>         0.0000
     25 O1          9.1591  -10.0217    6.8694 O.3       1 <0>        -0.8167
     26 O2         -1.3014   -0.6098   -2.1336 O.2       1 <0>        -0.5700
     27 O3          2.6287   -7.4120    1.3872 O.2       1 <0>        -0.5700
     28 O4          7.2927   -8.7830    7.8713 O.2       1 <0>        -0.8167
     29 O5          9.4353   -7.6542    7.4762 O.2       1 <0>        -0.8167
     30 O6          7.9926   -8.2799    5.5896 O.3       1 <0>        -0.4637
     31 S1          8.5203   -8.7233    7.0793 S.o2      1 <0>         1.6337
     32 H1          1.7714   -0.2251    1.6135 H         1 <0>         0.1500
     33 H2          0.0003    0.0002   -0.0001 H         1 <0>         0.1500
     34 H3          3.4155   -1.5047    2.7491 H         1 <0>         0.1500
     35 H4         -0.9660   -3.0949   -2.7512 H         1 <0>         0.0000
     36 H5          0.6022   -2.4064   -3.2029 H         1 <0>         0.0000
     37 H6          3.4445   -5.3628   -0.6369 H         1 <0>         0.0000
     38 H7          1.7735   -5.8804   -0.3920 H         1 <0>         0.0000
     39 H8         -0.1524   -3.9705   -0.6847 H         1 <0>         0.0000
     40 H9          0.9430   -4.4864   -1.9618 H         1 <0>         0.0000
     41 H10         4.0144   -3.1796    4.4653 H         1 <0>         0.0000
     42 H11         5.3994   -3.4390    3.3963 H         1 <0>         0.0000
     43 H12         5.8694   -5.3151    4.6450 H         1 <0>         0.0000
     44 H13         4.3104   -5.2623    5.4714 H         1 <0>         0.0000
     45 H14         4.2678   -3.2271    0.9157 H         1 <0>         0.0000
     46 H15         1.3362   -4.1106    1.1841 H         1 <0>         0.0000
     47 H16         2.5535   -4.4515    3.1073 H         1 <0>         0.0000
     48 H17         3.2283   -6.6104    3.9404 H         1 <0>         0.0000
     49 H18         3.2850   -3.6286   -2.0152 H         1 <0>         0.0000
     50 H19         3.7697   -2.2435   -1.0182 H         1 <0>         0.0000
     51 H20         2.6102   -2.0207   -2.3426 H         1 <0>         0.0000
     52 H21         6.2005   -5.2008    2.0953 H         1 <0>         0.0000
     53 H22         5.3355   -5.0069    0.5586 H         1 <0>         0.0000
     54 H23         5.7248   -6.6306    1.1587 H         1 <0>         0.0000
     55 H24         3.4984   -8.9472    2.9564 H         1 <0>         0.0000
     56 H25         5.1358   -9.5663    2.6762 H         1 <0>         0.0000
     57 H26         4.4862   -8.2713    1.6553 H         1 <0>         0.0000
     58 H27         5.9628   -9.9021    6.1564 H         1 <0>         0.0000
     59 H28         5.5368  -10.2638    4.4961 H         1 <0>         0.0000
     60 H29         5.5971   -7.4633    5.7383 H         1 <0>         0.0000
     61 H30         4.1381   -8.4002    5.4353 H         1 <0>         0.0000
     62 H31         7.4787   -8.8849    3.6983 H         1 <0>         0.0000
     63 H32         8.0085  -10.1757    4.8078 H         1 <0>         0.0000
     64 H33         6.0978   -7.3661    3.3127 H         1 <0>         0.0000
@<TRIPOS>BOND
     1    1    3 2
     2    1    4 1
     3    2    4 2
     4    2    5 1
     5    3   12 1
     6    4   16 1
     7    5    7 1
     8    5   26 2
     9    6    8 1
    10    6   17 1
    11    6   27 2
    12    7    9 1
    13    8   13 1
    14    9   16 1
    15   10   11 1
    16   10   14 1
    17   11   15 1
    18   12   13 1
    19   12   14 1
    20   13   16 1
    21   14   17 1
    22   15   17 1
    23   15   24 1
    24   16   18 1
    25   17   19 1
    26   20   24 1
    27   21   22 1
    28   21   23 1
    29   22   24 1
    30   23   30 1
    31   25   31 1
    32   28   31 2
    33   29   31 2
    34   30   31 1
    35    1   32 1
    36    2   33 1
    37    3   34 1
    38    7   35 1
    39    7   36 1
    40    8   37 1
    41    8   38 1
    42    9   39 1
    43    9   40 1
    44   10   41 1
    45   10   42 1
    46   11   43 1
    47   11   44 1
    48   12   45 1
    49   13   46 1
    50   14   47 1
    51   15   48 1
    52   18   49 1
    53   18   50 1
    54   18   51 1
    55   19   52 1
    56   19   53 1
    57   19   54 1
    58   20   55 1
    59   20   56 1
    60   20   57 1
    61   21   58 1
    62   21   59 1
    63   22   60 1
    64   22   61 1
    65   23   62 1
    66   23   63 1
    67   24   64 1

@<TRIPOS>MOLECULE
DKPES_CSD_MMMF_1_6
   64    67     0     0     0
SMALL
USER_CHARGES

@<TRIPOS>ATOM
      1 C1          2.0121   -1.2143    1.2319 C.2       1 <0>        -0.1500
      2 C2          0.3162   -0.9298   -0.4630 C.2       1 <0>        -0.1356
      3 C3          2.9245   -1.9459    1.8863 C.2       1 <0>        -0.2882
      4 C4          1.3270   -1.6661    0.0290 C.2       1 <0>        -0.1382
      5 C5         -0.4261   -1.3440   -1.6772 C.2       1 <0>         0.4946
      6 C6          3.0520   -6.2645    1.2605 C.2       1 <0>         0.4480
      7 C7         -0.0521   -2.6371   -2.3563 C.3       1 <0>         0.0610
      8 C8          2.6249   -5.3856    0.0869 C.3       1 <0>         0.0610
      9 C9          0.6099   -3.6118   -1.3906 C.3       1 <0>         0.0000
     10 C10         4.4784   -3.8939    3.7777 C.3       1 <0>         0.0000
     11 C11         4.7891   -5.2227    4.4865 C.3       1 <0>         0.0000
     12 C12         3.3262   -3.3340    1.4645 C.3       1 <0>         0.1382
     13 C13         2.2273   -3.9675    0.5485 C.3       1 <0>         0.0000
     14 C14         3.5426   -4.2948    2.6428 C.3       1 <0>         0.0000
     15 C15         4.2322   -6.3446    3.5783 C.3       1 <0>         0.0000
     16 C16         1.7910   -2.9885   -0.5996 C.3       1 <0>         0.1382
     17 C17         4.0987   -5.6679    2.1953 C.3       1 <0>         0.0610
     18 C18         2.9581   -2.6968   -1.5724 C.3       1 <0>         0.0000
     19 C19         5.4441   -5.6231    1.4437 C.3       1 <0>         0.0000
     20 C20         4.5183   -8.6617    2.6779 C.3       1 <0>         0.0000
     21 C21         6.3229   -9.1702    5.2571 C.3       1 <0>         0.0000
     22 C22         5.1520   -8.2058    5.0632 C.3       1 <0>         0.0000
     23 C23         6.3373   -9.7563    6.6629 C.3       1 <0>         0.2800
     24 C24         5.0782   -7.6104    3.6426 C.3       1 <0>         0.0000
     25 O1          8.8594   -9.1998    7.8970 O.3       1 <0>        -0.8167
     26 O2         -1.3014   -0.6098   -2.1336 O.2       1 <0>        -0.5700
     27 O3          2.6287   -7.4120    1.3872 O.2       1 <0>        -0.5700
     28 O4          7.7987   -7.4011    9.1858 O.2       1 <0>        -0.8167
     29 O5          8.1682   -7.1225    6.7760 O.2       1 <0>        -0.8167
     30 O6          6.4736   -8.6975    7.6007 O.3       1 <0>        -0.4637
     31 S1          7.9552   -8.0509    7.8854 S.o2      1 <0>         1.6337
     32 H1          1.7714   -0.2251    1.6135 H         1 <0>         0.1500
     33 H2          0.0003    0.0002   -0.0001 H         1 <0>         0.1500
     34 H3          3.4155   -1.5047    2.7491 H         1 <0>         0.1500
     35 H4         -0.9660   -3.0949   -2.7512 H         1 <0>         0.0000
     36 H5          0.6022   -2.4064   -3.2029 H         1 <0>         0.0000
     37 H6          3.4445   -5.3628   -0.6369 H         1 <0>         0.0000
     38 H7          1.7735   -5.8804   -0.3920 H         1 <0>         0.0000
     39 H8         -0.1524   -3.9705   -0.6847 H         1 <0>         0.0000
     40 H9          0.9430   -4.4864   -1.9618 H         1 <0>         0.0000
     41 H10         4.0144   -3.1796    4.4653 H         1 <0>         0.0000
     42 H11         5.3994   -3.4390    3.3963 H         1 <0>         0.0000
     43 H12         5.8694   -5.3151    4.6450 H         1 <0>         0.0000
     44 H13         4.3104   -5.2623    5.4714 H         1 <0>         0.0000
     45 H14         4.2678   -3.2271    0.9157 H         1 <0>         0.0000
     46 H15         1.3362   -4.1106    1.1841 H         1 <0>         0.0000
     47 H16         2.5535   -4.4515    3.1073 H         1 <0>         0.0000
     48 H17         3.2283   -6.6104    3.9404 H         1 <0>         0.0000
     49 H18         3.2850   -3.6286   -2.0152 H         1 <0>         0.0000
     50 H19         3.7697   -2.2435   -1.0182 H         1 <0>         0.0000
     51 H20         2.6102   -2.0207   -2.3426 H         1 <0>         0.0000
     52 H21         6.2005   -5.2008    2.0953 H         1 <0>         0.0000
     53 H22         5.3355   -5.0069    0.5586 H         1 <0>         0.0000
     54 H23         5.7248   -6.6306    1.1587 H         1 <0>         0.0000
     55 H24         3.4984   -8.9472    2.9564 H         1 <0>         0.0000
     56 H25         5.1358   -9.5663    2.6762 H         1 <0>         0.0000
     57 H26         4.4862   -8.2713    1.6553 H         1 <0>         0.0000
     58 H27         6.2743   -9.9919    4.5337 H         1 <0>         0.0000
     59 H28         7.2737   -8.6565    5.0689 H         1 <0>         0.0000
     60 H29         5.2482   -7.3872    5.7883 H         1 <0>         0.0000
     61 H30         4.2124   -8.7226    5.2963 H         1 <0>         0.0000
     62 H31         7.1790  -10.4446    6.7899 H         1 <0>         0.0000
     63 H32         5.4051  -10.2899    6.8740 H         1 <0>         0.0000
     64 H33         6.0978   -7.3661    3.3127 H         1 <0>         0.0000
@<TRIPOS>BOND
     1    1    3 2
     2    1    4 1
     3    2    4 2
     4    2    5 1
     5    3   12 1
     6    4   16 1
     7    5    7 1
     8    5   26 2
     9    6    8 1
    10    6   17 1
    11    6   27 2
    12    7    9 1
    13    8   13 1
    14    9   16 1
    15   10   11 1
    16   10   14 1
    17   11   15 1
    18   12   13 1
    19   12   14 1
    20   13   16 1
    21   14   17 1
    22   15   17 1
    23   15   24 1
    24   16   18 1
    25   17   19 1
    26   20   24 1
    27   21   22 1
    28   21   23 1
    29   22   24 1
    30   23   30 1
    31   25   31 1
    32   28   31 2
    33   29   31 2
    34   30   31 1
    35    1   32 1
    36    2   33 1
    37    3   34 1
    38    7   35 1
    39    7   36 1
    40    8   37 1
    41    8   38 1
    42    9   39 1
    43    9   40 1
    44   10   41 1
    45   10   42 1
    46   11   43 1
    47   11   44 1
    48   12   45 1
    49   13   46 1
    50   14   47 1
    51   15   48 1
    52   18   49 1
    53   18   50 1
    54   18   51 1
    55   19   52 1
    56   19   53 1
    57   19   54 1
    58   20   55 1
    59   20   56 1
    60   20   57 1
    61   21   58 1
    62   21   59 1
    63   22   60 1
    64   22   61 1
    65   23   62 1
    66   23   63 1
    67   24   64 1

@<TRIPOS>MOLECULE
DKPES_CSD_MMMF_1_7
   64    67     0     0     0
SMALL
USER_CHARGES

@<TRIPOS>ATOM
      1 C1          2.0121   -1.2143    1.2319 C.2       1 <0>        -0.1500
      2 C2          0.3162   -0.9298   -0.4630 C.2       1 <0>        -0.1356
      3 C3          2.9245   -1.9459    1.8863 C.2       1 <0>        -0.2882
      4 C4          1.3270   -1.6661    0.0290 C.2       1 <0>        -0.1382
      5 C5         -0.4261   -1.3440   -1.6772 C.2       1 <0>         0.4946
      6 C6          3.0520   -6.2645    1.2605 C.2       1 <0>         0.4480
      7 C7         -0.0521   -2.6371   -2.3563 C.3       1 <0>         0.0610
      8 C8          2.6249   -5.3856    0.0869 C.3       1 <0>         0.0610
      9 C9          0.6099   -3.6118   -1.3906 C.3       1 <0>         0.0000
     10 C10         4.4784   -3.8939    3.7777 C.3       1 <0>         0.0000
     11 C11         4.7891   -5.2227    4.4865 C.3       1 <0>         0.0000
     12 C12         3.3262   -3.3340    1.4645 C.3       1 <0>         0.1382
     13 C13         2.2273   -3.9675    0.5485 C.3       1 <0>         0.0000
     14 C14         3.5426   -4.2948    2.6428 C.3       1 <0>         0.0000
     15 C15         4.2322   -6.3446    3.5783 C.3       1 <0>         0.0000
     16 C16         1.7910   -2.9885   -0.5996 C.3       1 <0>         0.1382
     17 C17         4.0987   -5.6679    2.1953 C.3       1 <0>         0.0610
     18 C18         2.9581   -2.6968   -1.5724 C.3       1 <0>         0.0000
     19 C19         5.4441   -5.6231    1.4437 C.3       1 <0>         0.0000
     20 C20         4.5183   -8.6617    2.6779 C.3       1 <0>         0.0000
     21 C21         6.3229   -9.1702    5.2571 C.3       1 <0>         0.0000
     22 C22         5.1520   -8.2058    5.0632 C.3       1 <0>         0.0000
     23 C23         6.3373   -9.7563    6.6629 C.3       1 <0>         0.2800
     24 C24         5.0782   -7.6104    3.6426 C.3       1 <0>         0.0000
     25 O1          5.9459  -12.5881    6.5141 O.3       1 <0>        -0.8167
     26 O2         -1.3014   -0.6098   -2.1336 O.2       1 <0>        -0.5700
     27 O3          2.6287   -7.4120    1.3872 O.2       1 <0>        -0.5700
     28 O4          8.3504  -12.9103    6.8830 O.2       1 <0>        -0.8167
     29 O5          7.5521  -12.0209    4.7399 O.2       1 <0>        -0.8167
     30 O6          7.4346  -10.6521    6.7758 O.3       1 <0>        -0.4637
     31 S1          7.3059  -12.1735    6.1730 S.o2      1 <0>         1.6337
     32 H1          1.7714   -0.2251    1.6135 H         1 <0>         0.1500
     33 H2          0.0003    0.0002   -0.0001 H         1 <0>         0.1500
     34 H3          3.4155   -1.5047    2.7491 H         1 <0>         0.1500
     35 H4         -0.9660   -3.0949   -2.7512 H         1 <0>         0.0000
     36 H5          0.6022   -2.4064   -3.2029 H         1 <0>         0.0000
     37 H6          3.4445   -5.3628   -0.6369 H         1 <0>         0.0000
     38 H7          1.7735   -5.8804   -0.3920 H         1 <0>         0.0000
     39 H8         -0.1524   -3.9705   -0.6847 H         1 <0>         0.0000
     40 H9          0.9430   -4.4864   -1.9618 H         1 <0>         0.0000
     41 H10         4.0144   -3.1796    4.4653 H         1 <0>         0.0000
     42 H11         5.3994   -3.4390    3.3963 H         1 <0>         0.0000
     43 H12         5.8694   -5.3151    4.6450 H         1 <0>         0.0000
     44 H13         4.3104   -5.2623    5.4714 H         1 <0>         0.0000
     45 H14         4.2678   -3.2271    0.9157 H         1 <0>         0.0000
     46 H15         1.3362   -4.1106    1.1841 H         1 <0>         0.0000
     47 H16         2.5535   -4.4515    3.1073 H         1 <0>         0.0000
     48 H17         3.2283   -6.6104    3.9404 H         1 <0>         0.0000
     49 H18         3.2850   -3.6286   -2.0152 H         1 <0>         0.0000
     50 H19         3.7697   -2.2435   -1.0182 H         1 <0>         0.0000
     51 H20         2.6102   -2.0207   -2.3426 H         1 <0>         0.0000
     52 H21         6.2005   -5.2008    2.0953 H         1 <0>         0.0000
     53 H22         5.3355   -5.0069    0.5586 H         1 <0>         0.0000
     54 H23         5.7248   -6.6306    1.1587 H         1 <0>         0.0000
     55 H24         3.4984   -8.9472    2.9564 H         1 <0>         0.0000
     56 H25         5.1358   -9.5663    2.6762 H         1 <0>         0.0000
     57 H26         4.4862   -8.2713    1.6553 H         1 <0>         0.0000
     58 H27         6.2743   -9.9919    4.5337 H         1 <0>         0.0000
     59 H28         7.2737   -8.6565    5.0689 H         1 <0>         0.0000
     60 H29         5.2482   -7.3872    5.7883 H         1 <0>         0.0000
     61 H30         4.2124   -8.7226    5.2963 H         1 <0>         0.0000
     62 H31         5.4142  -10.3091    6.8645 H         1 <0>         0.0000
     63 H32         6.4529   -8.9686    7.4141 H         1 <0>         0.0000
     64 H33         6.0978   -7.3661    3.3127 H         1 <0>         0.0000
@<TRIPOS>BOND
     1    1    3 2
     2    1    4 1
     3    2    4 2
     4    2    5 1
     5    3   12 1
     6    4   16 1
     7    5    7 1
     8    5   26 2
     9    6    8 1
    10    6   17 1
    11    6   27 2
    12    7    9 1
    13    8   13 1
    14    9   16 1
    15   10   11 1
    16   10   14 1
    17   11   15 1
    18   12   13 1
    19   12   14 1
    20   13   16 1
    21   14   17 1
    22   15   17 1
    23   15   24 1
    24   16   18 1
    25   17   19 1
    26   20   24 1
    27   21   22 1
    28   21   23 1
    29   22   24 1
    30   23   30 1
    31   25   31 1
    32   28   31 2
    33   29   31 2
    34   30   31 1
    35    1   32 1
    36    2   33 1
    37    3   34 1
    38    7   35 1
    39    7   36 1
    40    8   37 1
    41    8   38 1
    42    9   39 1
    43    9   40 1
    44   10   41 1
    45   10   42 1
    46   11   43 1
    47   11   44 1
    48   12   45 1
    49   13   46 1
    50   14   47 1
    51   15   48 1
    52   18   49 1
    53   18   50 1
    54   18   51 1
    55   19   52 1
    56   19   53 1
    57   19   54 1
    58   20   55 1
    59   20   56 1
    60   20   57 1
    61   21   58 1
    62   21   59 1
    63   22   60 1
    64   22   61 1
    65   23   62 1
    66   23   63 1
    67   24   64 1

@<TRIPOS>MOLECULE
DKPES_CSD_MMMF_1_31
   64    67     0     0     0
SMALL
USER_CHARGES

@<TRIPOS>ATOM
      1 C1          2.0121   -1.2143    1.2319 C.2       1 <0>        -0.1500
      2 C2          0.3162   -0.9298   -0.4630 C.2       1 <0>        -0.1356
      3 C3          2.9245   -1.9459    1.8863 C.2       1 <0>        -0.2882
      4 C4          1.3270   -1.6661    0.0290 C.2       1 <0>        -0.1382
      5 C5         -0.4261   -1.3440   -1.6772 C.2       1 <0>         0.4946
      6 C6          3.0520   -6.2645    1.2605 C.2       1 <0>         0.4480
      7 C7         -0.0521   -2.6371   -2.3563 C.3       1 <0>         0.0610
      8 C8          2.6249   -5.3856    0.0869 C.3       1 <0>         0.0610
      9 C9          0.6099   -3.6118   -1.3906 C.3       1 <0>         0.0000
     10 C10         4.4784   -3.8939    3.7777 C.3       1 <0>         0.0000
     11 C11         4.7891   -5.2227    4.4865 C.3       1 <0>         0.0000
     12 C12         3.3262   -3.3340    1.4645 C.3       1 <0>         0.1382
     13 C13         2.2273   -3.9675    0.5485 C.3       1 <0>         0.0000
     14 C14         3.5426   -4.2948    2.6428 C.3       1 <0>         0.0000
     15 C15         4.2322   -6.3446    3.5783 C.3       1 <0>         0.0000
     16 C16         1.7910   -2.9885   -0.5996 C.3       1 <0>         0.1382
     17 C17         4.0987   -5.6679    2.1953 C.3       1 <0>         0.0610
     18 C18         2.9581   -2.6968   -1.5724 C.3       1 <0>         0.0000
     19 C19         5.4441   -5.6231    1.4437 C.3       1 <0>         0.0000
     20 C20         4.5183   -8.6617    2.6779 C.3       1 <0>         0.0000
     21 C21         6.1805   -7.5138    5.9587 C.3       1 <0>         0.0000
     22 C22         5.1520   -8.2058    5.0632 C.3       1 <0>         0.0000
     23 C23         6.2405   -8.1544    7.3393 C.3       1 <0>         0.2800
     24 C24         5.0782   -7.6104    3.6426 C.3       1 <0>         0.0000
     25 O1          8.9091   -9.0538    7.8528 O.3       1 <0>        -0.8167
     26 O2         -1.3014   -0.6098   -2.1336 O.2       1 <0>        -0.5700
     27 O3          2.6287   -7.4120    1.3872 O.2       1 <0>        -0.5700
     28 O4          8.3758   -9.6823    5.5415 O.2       1 <0>        -0.8167
     29 O5          8.2204  -11.3561    7.3291 O.2       1 <0>        -0.8167
     30 O6          6.5899   -9.5242    7.1953 O.3       1 <0>        -0.4637
     31 S1          8.1605   -9.9415    6.9643 S.o2      1 <0>         1.6337
     32 H1          1.7714   -0.2251    1.6135 H         1 <0>         0.1500
     33 H2          0.0003    0.0002   -0.0001 H         1 <0>         0.1500
     34 H3          3.4155   -1.5047    2.7491 H         1 <0>         0.1500
     35 H4         -0.9660   -3.0949   -2.7512 H         1 <0>         0.0000
     36 H5          0.6022   -2.4064   -3.2029 H         1 <0>         0.0000
     37 H6          3.4445   -5.3628   -0.6369 H         1 <0>         0.0000
     38 H7          1.7735   -5.8804   -0.3920 H         1 <0>         0.0000
     39 H8         -0.1524   -3.9705   -0.6847 H         1 <0>         0.0000
     40 H9          0.9430   -4.4864   -1.9618 H         1 <0>         0.0000
     41 H10         4.0144   -3.1796    4.4653 H         1 <0>         0.0000
     42 H11         5.3994   -3.4390    3.3963 H         1 <0>         0.0000
     43 H12         5.8694   -5.3151    4.6450 H         1 <0>         0.0000
     44 H13         4.3104   -5.2623    5.4714 H         1 <0>         0.0000
     45 H14         4.2678   -3.2271    0.9157 H         1 <0>         0.0000
     46 H15         1.3362   -4.1106    1.1841 H         1 <0>         0.0000
     47 H16         2.5535   -4.4515    3.1073 H         1 <0>         0.0000
     48 H17         3.2283   -6.6104    3.9404 H         1 <0>         0.0000
     49 H18         3.2850   -3.6286   -2.0152 H         1 <0>         0.0000
     50 H19         3.7697   -2.2435   -1.0182 H         1 <0>         0.0000
     51 H20         2.6102   -2.0207   -2.3426 H         1 <0>         0.0000
     52 H21         6.2005   -5.2008    2.0953 H         1 <0>         0.0000
     53 H22         5.3355   -5.0069    0.5586 H         1 <0>         0.0000
     54 H23         5.7248   -6.6306    1.1587 H         1 <0>         0.0000
     55 H24         3.4984   -8.9472    2.9564 H         1 <0>         0.0000
     56 H25         5.1358   -9.5663    2.6762 H         1 <0>         0.0000
     57 H26         4.4862   -8.2713    1.6553 H         1 <0>         0.0000
     58 H27         7.1787   -7.5543    5.5083 H         1 <0>         0.0000
     59 H28         5.9383   -6.4490    6.0634 H         1 <0>         0.0000
     60 H29         4.1645   -8.1244    5.5357 H         1 <0>         0.0000
     61 H30         5.3837   -9.2768    5.0032 H         1 <0>         0.0000
     62 H31         5.2690   -8.0935    7.8401 H         1 <0>         0.0000
     63 H32         6.9954   -7.6670    7.9644 H         1 <0>         0.0000
     64 H33         6.0978   -7.3661    3.3127 H         1 <0>         0.0000
@<TRIPOS>BOND
     1    1    3 2
     2    1    4 1
     3    2    4 2
     4    2    5 1
     5    3   12 1
     6    4   16 1
     7    5    7 1
     8    5   26 2
     9    6    8 1
    10    6   17 1
    11    6   27 2
    12    7    9 1
    13    8   13 1
    14    9   16 1
    15   10   11 1
    16   10   14 1
    17   11   15 1
    18   12   13 1
    19   12   14 1
    20   13   16 1
    21   14   17 1
    22   15   17 1
    23   15   24 1
    24   16   18 1
    25   17   19 1
    26   20   24 1
    27   21   22 1
    28   21   23 1
    29   22   24 1
    30   23   30 1
    31   25   31 1
    32   28   31 2
    33   29   31 2
    34   30   31 1
    35    1   32 1
    36    2   33 1
    37    3   34 1
    38    7   35 1
    39    7   36 1
    40    8   37 1
    41    8   38 1
    42    9   39 1
    43    9   40 1
    44   10   41 1
    45   10   42 1
    46   11   43 1
    47   11   44 1
    48   12   45 1
    49   13   46 1
    50   14   47 1
    51   15   48 1
    52   18   49 1
    53   18   50 1
    54   18   51 1
    55   19   52 1
    56   19   53 1
    57   19   54 1
    58   20   55 1
    59   20   56 1
    60   20   57 1
    61   21   58 1
    62   21   59 1
    63   22   60 1
    64   22   61 1
    65   23   62 1
    66   23   63 1
    67   24   64 1

@<TRIPOS>MOLECULE
DKPES_CSD_MMMF_1_18
   64    67     0     0     0
SMALL
USER_CHARGES

@<TRIPOS>ATOM
      1 C1          2.0121   -1.2143    1.2319 C.2       1 <0>        -0.1500
      2 C2          0.3162   -0.9298   -0.4630 C.2       1 <0>        -0.1356
      3 C3          2.9245   -1.9459    1.8863 C.2       1 <0>        -0.2882
      4 C4          1.3270   -1.6661    0.0290 C.2       1 <0>        -0.1382
      5 C5         -0.4261   -1.3440   -1.6772 C.2       1 <0>         0.4946
      6 C6          3.0520   -6.2645    1.2605 C.2       1 <0>         0.4480
      7 C7         -0.0521   -2.6371   -2.3563 C.3       1 <0>         0.0610
      8 C8          2.6249   -5.3856    0.0869 C.3       1 <0>         0.0610
      9 C9          0.6099   -3.6118   -1.3906 C.3       1 <0>         0.0000
     10 C10         4.4784   -3.8939    3.7777 C.3       1 <0>         0.0000
     11 C11         4.7891   -5.2227    4.4865 C.3       1 <0>         0.0000
     12 C12         3.3262   -3.3340    1.4645 C.3       1 <0>         0.1382
     13 C13         2.2273   -3.9675    0.5485 C.3       1 <0>         0.0000
     14 C14         3.5426   -4.2948    2.6428 C.3       1 <0>         0.0000
     15 C15         4.2322   -6.3446    3.5783 C.3       1 <0>         0.0000
     16 C16         1.7910   -2.9885   -0.5996 C.3       1 <0>         0.1382
     17 C17         4.0987   -5.6679    2.1953 C.3       1 <0>         0.0610
     18 C18         2.9581   -2.6968   -1.5724 C.3       1 <0>         0.0000
     19 C19         5.4441   -5.6231    1.4437 C.3       1 <0>         0.0000
     20 C20         4.5183   -8.6617    2.6779 C.3       1 <0>         0.0000
     21 C21         5.9758   -9.4919    5.1403 C.3       1 <0>         0.0000
     22 C22         5.1520   -8.2058    5.0632 C.3       1 <0>         0.0000
     23 C23         7.4225   -9.2547    4.7271 C.3       1 <0>         0.2800
     24 C24         5.0782   -7.6104    3.6426 C.3       1 <0>         0.0000
     25 O1          9.1591  -10.0217    6.8694 O.3       1 <0>        -0.8167
     26 O2         -1.3014   -0.6098   -2.1336 O.2       1 <0>        -0.5700
     27 O3          2.6287   -7.4120    1.3872 O.2       1 <0>        -0.5700
     28 O4          7.2927   -8.7830    7.8713 O.2       1 <0>        -0.8167
     29 O5          9.4353   -7.6542    7.4762 O.2       1 <0>        -0.8167
     30 O6          7.9926   -8.2799    5.5896 O.3       1 <0>        -0.4637
     31 S1          8.5203   -8.7233    7.0793 S.o2      1 <0>         1.6337
     32 H1          1.7714   -0.2251    1.6135 H         1 <0>         0.1500
     33 H2          0.0003    0.0002   -0.0001 H         1 <0>         0.1500
     34 H3          3.4155   -1.5047    2.7491 H         1 <0>         0.1500
     35 H4         -0.9660   -3.0949   -2.7512 H         1 <0>         0.0000
     36 H5          0.6022   -2.4064   -3.2029 H         1 <0>         0.0000
     37 H6          3.4445   -5.3628   -0.6369 H         1 <0>         0.0000
     38 H7          1.7735   -5.8804   -0.3920 H         1 <0>         0.0000
     39 H8         -0.1524   -3.9705   -0.6847 H         1 <0>         0.0000
     40 H9          0.9430   -4.4864   -1.9618 H         1 <0>         0.0000
     41 H10         4.0144   -3.1796    4.4653 H         1 <0>         0.0000
     42 H11         5.3994   -3.4390    3.3963 H         1 <0>         0.0000
     43 H12         5.8694   -5.3151    4.6450 H         1 <0>         0.0000
     44 H13         4.3104   -5.2623    5.4714 H         1 <0>         0.0000
     45 H14         4.2678   -3.2271    0.9157 H         1 <0>         0.0000
     46 H15         1.3362   -4.1106    1.1841 H         1 <0>         0.0000
     47 H16         2.5535   -4.4515    3.1073 H         1 <0>         0.0000
     48 H17         3.2283   -6.6104    3.9404 H         1 <0>         0.0000
     49 H18         3.2850   -3.6286   -2.0152 H         1 <0>         0.0000
     50 H19         3.7697   -2.2435   -1.0182 H         1 <0>         0.0000
     51 H20         2.6102   -2.0207   -2.3426 H         1 <0>         0.0000
     52 H21         6.2005   -5.2008    2.0953 H         1 <0>         0.0000
     53 H22         5.3355   -5.0069    0.5586 H         1 <0>         0.0000
     54 H23         5.7248   -6.6306    1.1587 H         1 <0>         0.0000
     55 H24         3.4984   -8.9472    2.9564 H         1 <0>         0.0000
     56 H25         5.1358   -9.5663    2.6762 H         1 <0>         0.0000
     57 H26         4.4862   -8.2713    1.6553 H         1 <0>         0.0000
     58 H27         5.9628   -9.9021    6.1564 H         1 <0>         0.0000
     59 H28         5.5368  -10.2638    4.4961 H         1 <0>         0.0000
     60 H29         5.5971   -7.4633    5.7383 H         1 <0>         0.0000
     61 H30         4.1381   -8.4002    5.4353 H         1 <0>         0.0000
     62 H31         7.4787   -8.8849    3.6983 H         1 <0>         0.0000
     63 H32         8.0085  -10.1757    4.8078 H         1 <0>         0.0000
     64 H33         6.0978   -7.3661    3.3127 H         1 <0>         0.0000
@<TRIPOS>BOND
     1    1    3 2
     2    1    4 1
     3    2    4 2
     4    2    5 1
     5    3   12 1
     6    4   16 1
     7    5    7 1
     8    5   26 2
     9    6    8 1
    10    6   17 1
    11    6   27 2
    12    7    9 1
    13    8   13 1
    14    9   16 1
    15   10   11 1
    16   10   14 1
    17   11   15 1
    18   12   13 1
    19   12   14 1
    20   13   16 1
    21   14   17 1
    22   15   17 1
    23   15   24 1
    24   16   18 1
    25   17   19 1
    26   20   24 1
    27   21   22 1
    28   21   23 1
    29   22   24 1
    30   23   30 1
    31   25   31 1
    32   28   31 2
    33   29   31 2
    34   30   31 1
    35    1   32 1
    36    2   33 1
    37    3   34 1
    38    7   35 1
    39    7   36 1
    40    8   37 1
    41    8   38 1
    42    9   39 1
    43    9   40 1
    44   10   41 1
    45   10   42 1
    46   11   43 1
    47   11   44 1
    48   12   45 1
    49   13   46 1
    50   14   47 1
    51   15   48 1
    52   18   49 1
    53   18   50 1
    54   18   51 1
    55   19   52 1
    56   19   53 1
    57   19   54 1
    58   20   55 1
    59   20   56 1
    60   20   57 1
    61   21   58 1
    62   21   59 1
    63   22   60 1
    64   22   61 1
    65   23   62 1
    66   23   63 1
    67   24   64 1

@<TRIPOS>MOLECULE
DKPES_CSD_MMMF_1_5
   64    67     0     0     0
SMALL
USER_CHARGES

@<TRIPOS>ATOM
      1 C1          2.0121   -1.2143    1.2319 C.2       1 <0>        -0.1500
      2 C2          0.3162   -0.9298   -0.4630 C.2       1 <0>        -0.1356
      3 C3          2.9245   -1.9459    1.8863 C.2       1 <0>        -0.2882
      4 C4          1.3270   -1.6661    0.0290 C.2       1 <0>        -0.1382
      5 C5         -0.4261   -1.3440   -1.6772 C.2       1 <0>         0.4946
      6 C6          3.0520   -6.2645    1.2605 C.2       1 <0>         0.4480
      7 C7         -0.0521   -2.6371   -2.3563 C.3       1 <0>         0.0610
      8 C8          2.6249   -5.3856    0.0869 C.3       1 <0>         0.0610
      9 C9          0.6099   -3.6118   -1.3906 C.3       1 <0>         0.0000
     10 C10         4.4784   -3.8939    3.7777 C.3       1 <0>         0.0000
     11 C11         4.7891   -5.2227    4.4865 C.3       1 <0>         0.0000
     12 C12         3.3262   -3.3340    1.4645 C.3       1 <0>         0.1382
     13 C13         2.2273   -3.9675    0.5485 C.3       1 <0>         0.0000
     14 C14         3.5426   -4.2948    2.6428 C.3       1 <0>         0.0000
     15 C15         4.2322   -6.3446    3.5783 C.3       1 <0>         0.0000
     16 C16         1.7910   -2.9885   -0.5996 C.3       1 <0>         0.1382
     17 C17         4.0987   -5.6679    2.1953 C.3       1 <0>         0.0610
     18 C18         2.9581   -2.6968   -1.5724 C.3       1 <0>         0.0000
     19 C19         5.4441   -5.6231    1.4437 C.3       1 <0>         0.0000
     20 C20         4.5183   -8.6617    2.6779 C.3       1 <0>         0.0000
     21 C21         6.3229   -9.1702    5.2571 C.3       1 <0>         0.0000
     22 C22         5.1520   -8.2058    5.0632 C.3       1 <0>         0.0000
     23 C23         7.6610   -8.4753    5.0413 C.3       1 <0>         0.2800
     24 C24         5.0782   -7.6104    3.6426 C.3       1 <0>         0.0000
     25 O1         10.4026   -7.7292    4.6939 O.3       1 <0>        -0.8167
     26 O2         -1.3014   -0.6098   -2.1336 O.2       1 <0>        -0.5700
     27 O3          2.6287   -7.4120    1.3872 O.2       1 <0>        -0.5700
     28 O4         11.0664  -10.0293    5.2327 O.2       1 <0>        -0.8167
     29 O5         10.2026   -8.5618    6.9995 O.2       1 <0>        -0.8167
     30 O6          8.7058   -9.4157    5.2495 O.3       1 <0>        -0.4637
     31 S1         10.2244   -8.8835    5.5734 S.o2      1 <0>         1.6337
     32 H1          1.7714   -0.2251    1.6135 H         1 <0>         0.1500
     33 H2          0.0003    0.0002   -0.0001 H         1 <0>         0.1500
     34 H3          3.4155   -1.5047    2.7491 H         1 <0>         0.1500
     35 H4         -0.9660   -3.0949   -2.7512 H         1 <0>         0.0000
     36 H5          0.6022   -2.4064   -3.2029 H         1 <0>         0.0000
     37 H6          3.4445   -5.3628   -0.6369 H         1 <0>         0.0000
     38 H7          1.7735   -5.8804   -0.3920 H         1 <0>         0.0000
     39 H8         -0.1524   -3.9705   -0.6847 H         1 <0>         0.0000
     40 H9          0.9430   -4.4864   -1.9618 H         1 <0>         0.0000
     41 H10         4.0144   -3.1796    4.4653 H         1 <0>         0.0000
     42 H11         5.3994   -3.4390    3.3963 H         1 <0>         0.0000
     43 H12         5.8694   -5.3151    4.6450 H         1 <0>         0.0000
     44 H13         4.3104   -5.2623    5.4714 H         1 <0>         0.0000
     45 H14         4.2678   -3.2271    0.9157 H         1 <0>         0.0000
     46 H15         1.3362   -4.1106    1.1841 H         1 <0>         0.0000
     47 H16         2.5535   -4.4515    3.1073 H         1 <0>         0.0000
     48 H17         3.2283   -6.6104    3.9404 H         1 <0>         0.0000
     49 H18         3.2850   -3.6286   -2.0152 H         1 <0>         0.0000
     50 H19         3.7697   -2.2435   -1.0182 H         1 <0>         0.0000
     51 H20         2.6102   -2.0207   -2.3426 H         1 <0>         0.0000
     52 H21         6.2005   -5.2008    2.0953 H         1 <0>         0.0000
     53 H22         5.3355   -5.0069    0.5586 H         1 <0>         0.0000
     54 H23         5.7248   -6.6306    1.1587 H         1 <0>         0.0000
     55 H24         3.4984   -8.9472    2.9564 H         1 <0>         0.0000
     56 H25         5.1358   -9.5663    2.6762 H         1 <0>         0.0000
     57 H26         4.4862   -8.2713    1.6553 H         1 <0>         0.0000
     58 H27         6.3089   -9.6019    6.2642 H         1 <0>         0.0000
     59 H28         6.2377  -10.0159    4.5636 H         1 <0>         0.0000
     60 H29         5.2482   -7.3872    5.7883 H         1 <0>         0.0000
     61 H30         4.2124   -8.7226    5.2963 H         1 <0>         0.0000
     62 H31         7.7900   -7.6492    5.7479 H         1 <0>         0.0000
     63 H32         7.7405   -8.0876    4.0207 H         1 <0>         0.0000
     64 H33         6.0978   -7.3661    3.3127 H         1 <0>         0.0000
@<TRIPOS>BOND
     1    1    3 2
     2    1    4 1
     3    2    4 2
     4    2    5 1
     5    3   12 1
     6    4   16 1
     7    5    7 1
     8    5   26 2
     9    6    8 1
    10    6   17 1
    11    6   27 2
    12    7    9 1
    13    8   13 1
    14    9   16 1
    15   10   11 1
    16   10   14 1
    17   11   15 1
    18   12   13 1
    19   12   14 1
    20   13   16 1
    21   14   17 1
    22   15   17 1
    23   15   24 1
    24   16   18 1
    25   17   19 1
    26   20   24 1
    27   21   22 1
    28   21   23 1
    29   22   24 1
    30   23   30 1
    31   25   31 1
    32   28   31 2
    33   29   31 2
    34   30   31 1
    35    1   32 1
    36    2   33 1
    37    3   34 1
    38    7   35 1
    39    7   36 1
    40    8   37 1
    41    8   38 1
    42    9   39 1
    43    9   40 1
    44   10   41 1
    45   10   42 1
    46   11   43 1
    47   11   44 1
    48   12   45 1
    49   13   46 1
    50   14   47 1
    51   15   48 1
    52   18   49 1
    53   18   50 1
    54   18   51 1
    55   19   52 1
    56   19   53 1
    57   19   54 1
    58   20   55 1
    59   20   56 1
    60   20   57 1
    61   21   58 1
    62   21   59 1
    63   22   60 1
    64   22   61 1
    65   23   62 1
    66   23   63 1
    67   24   64 1

@<TRIPOS>MOLECULE
DKPES_CSD_MMMF_1_18
   64    67     0     0     0
SMALL
USER_CHARGES

@<TRIPOS>ATOM
      1 C1          2.0121   -1.2143    1.2319 C.2       1 <0>        -0.1500
      2 C2          0.3162   -0.9298   -0.4630 C.2       1 <0>        -0.1356
      3 C3          2.9245   -1.9459    1.8863 C.2       1 <0>        -0.2882
      4 C4          1.3270   -1.6661    0.0290 C.2       1 <0>        -0.1382
      5 C5         -0.4261   -1.3440   -1.6772 C.2       1 <0>         0.4946
      6 C6          3.0520   -6.2645    1.2605 C.2       1 <0>         0.4480
      7 C7         -0.0521   -2.6371   -2.3563 C.3       1 <0>         0.0610
      8 C8          2.6249   -5.3856    0.0869 C.3       1 <0>         0.0610
      9 C9          0.6099   -3.6118   -1.3906 C.3       1 <0>         0.0000
     10 C10         4.4784   -3.8939    3.7777 C.3       1 <0>         0.0000
     11 C11         4.7891   -5.2227    4.4865 C.3       1 <0>         0.0000
     12 C12         3.3262   -3.3340    1.4645 C.3       1 <0>         0.1382
     13 C13         2.2273   -3.9675    0.5485 C.3       1 <0>         0.0000
     14 C14         3.5426   -4.2948    2.6428 C.3       1 <0>         0.0000
     15 C15         4.2322   -6.3446    3.5783 C.3       1 <0>         0.0000
     16 C16         1.7910   -2.9885   -0.5996 C.3       1 <0>         0.1382
     17 C17         4.0987   -5.6679    2.1953 C.3       1 <0>         0.0610
     18 C18         2.9581   -2.6968   -1.5724 C.3       1 <0>         0.0000
     19 C19         5.4441   -5.6231    1.4437 C.3       1 <0>         0.0000
     20 C20         4.5183   -8.6617    2.6779 C.3       1 <0>         0.0000
     21 C21         5.9758   -9.4919    5.1403 C.3       1 <0>         0.0000
     22 C22         5.1520   -8.2058    5.0632 C.3       1 <0>         0.0000
     23 C23         7.4225   -9.2547    4.7271 C.3       1 <0>         0.2800
     24 C24         5.0782   -7.6104    3.6426 C.3       1 <0>         0.0000
     25 O1          9.1591  -10.0217    6.8694 O.3       1 <0>        -0.8167
     26 O2         -1.3014   -0.6098   -2.1336 O.2       1 <0>        -0.5700
     27 O3          2.6287   -7.4120    1.3872 O.2       1 <0>        -0.5700
     28 O4          7.2927   -8.7830    7.8713 O.2       1 <0>        -0.8167
     29 O5          9.4353   -7.6542    7.4762 O.2       1 <0>        -0.8167
     30 O6          7.9926   -8.2799    5.5896 O.3       1 <0>        -0.4637
     31 S1          8.5203   -8.7233    7.0793 S.o2      1 <0>         1.6337
     32 H1          1.7714   -0.2251    1.6135 H         1 <0>         0.1500
     33 H2          0.0003    0.0002   -0.0001 H         1 <0>         0.1500
     34 H3          3.4155   -1.5047    2.7491 H         1 <0>         0.1500
     35 H4         -0.9660   -3.0949   -2.7512 H         1 <0>         0.0000
     36 H5          0.6022   -2.4064   -3.2029 H         1 <0>         0.0000
     37 H6          3.4445   -5.3628   -0.6369 H         1 <0>         0.0000
     38 H7          1.7735   -5.8804   -0.3920 H         1 <0>         0.0000
     39 H8         -0.1524   -3.9705   -0.6847 H         1 <0>         0.0000
     40 H9          0.9430   -4.4864   -1.9618 H         1 <0>         0.0000
     41 H10         4.0144   -3.1796    4.4653 H         1 <0>         0.0000
     42 H11         5.3994   -3.4390    3.3963 H         1 <0>         0.0000
     43 H12         5.8694   -5.3151    4.6450 H         1 <0>         0.0000
     44 H13         4.3104   -5.2623    5.4714 H         1 <0>         0.0000
     45 H14         4.2678   -3.2271    0.9157 H         1 <0>         0.0000
     46 H15         1.3362   -4.1106    1.1841 H         1 <0>         0.0000
     47 H16         2.5535   -4.4515    3.1073 H         1 <0>         0.0000
     48 H17         3.2283   -6.6104    3.9404 H         1 <0>         0.0000
     49 H18         3.2850   -3.6286   -2.0152 H         1 <0>         0.0000
     50 H19         3.7697   -2.2435   -1.0182 H         1 <0>         0.0000
     51 H20         2.6102   -2.0207   -2.3426 H         1 <0>         0.0000
     52 H21         6.2005   -5.2008    2.0953 H         1 <0>         0.0000
     53 H22         5.3355   -5.0069    0.5586 H         1 <0>         0.0000
     54 H23         5.7248   -6.6306    1.1587 H         1 <0>         0.0000
     55 H24         3.4984   -8.9472    2.9564 H         1 <0>         0.0000
     56 H25         5.1358   -9.5663    2.6762 H         1 <0>         0.0000
     57 H26         4.4862   -8.2713    1.6553 H         1 <0>         0.0000
     58 H27         5.9628   -9.9021    6.1564 H         1 <0>         0.0000
     59 H28         5.5368  -10.2638    4.4961 H         1 <0>         0.0000
     60 H29         5.5971   -7.4633    5.7383 H         1 <0>         0.0000
     61 H30         4.1381   -8.4002    5.4353 H         1 <0>         0.0000
     62 H31         7.4787   -8.8849    3.6983 H         1 <0>         0.0000
     63 H32         8.0085  -10.1757    4.8078 H         1 <0>         0.0000
     64 H33         6.0978   -7.3661    3.3127 H         1 <0>         0.0000
@<TRIPOS>BOND
     1    1    3 2
     2    1    4 1
     3    2    4 2
     4    2    5 1
     5    3   12 1
     6    4   16 1
     7    5    7 1
     8    5   26 2
     9    6    8 1
    10    6   17 1
    11    6   27 2
    12    7    9 1
    13    8   13 1
    14    9   16 1
    15   10   11 1
    16   10   14 1
    17   11   15 1
    18   12   13 1
    19   12   14 1
    20   13   16 1
    21   14   17 1
    22   15   17 1
    23   15   24 1
    24   16   18 1
    25   17   19 1
    26   20   24 1
    27   21   22 1
    28   21   23 1
    29   22   24 1
    30   23   30 1
    31   25   31 1
    32   28   31 2
    33   29   31 2
    34   30   31 1
    35    1   32 1
    36    2   33 1
    37    3   34 1
    38    7   35 1
    39    7   36 1
    40    8   37 1
    41    8   38 1
    42    9   39 1
    43    9   40 1
    44   10   41 1
    45   10   42 1
    46   11   43 1
    47   11   44 1
    48   12   45 1
    49   13   46 1
    50   14   47 1
    51   15   48 1
    52   18   49 1
    53   18   50 1
    54   18   51 1
    55   19   52 1
    56   19   53 1
    57   19   54 1
    58   20   55 1
    59   20   56 1
    60   20   57 1
    61   21   58 1
    62   21   59 1
    63   22   60 1
    64   22   61 1
    65   23   62 1
    66   23   63 1
    67   24   64 1

@<TRIPOS>MOLECULE
DKPES_CSD_MMMF_1_19
   64    67     0     0     0
SMALL
USER_CHARGES

@<TRIPOS>ATOM
      1 C1          2.0121   -1.2143    1.2319 C.2       1 <0>        -0.1500
      2 C2          0.3162   -0.9298   -0.4630 C.2       1 <0>        -0.1356
      3 C3          2.9245   -1.9459    1.8863 C.2       1 <0>        -0.2882
      4 C4          1.3270   -1.6661    0.0290 C.2       1 <0>        -0.1382
      5 C5         -0.4261   -1.3440   -1.6772 C.2       1 <0>         0.4946
      6 C6          3.0520   -6.2645    1.2605 C.2       1 <0>         0.4480
      7 C7         -0.0521   -2.6371   -2.3563 C.3       1 <0>         0.0610
      8 C8          2.6249   -5.3856    0.0869 C.3       1 <0>         0.0610
      9 C9          0.6099   -3.6118   -1.3906 C.3       1 <0>         0.0000
     10 C10         4.4784   -3.8939    3.7777 C.3       1 <0>         0.0000
     11 C11         4.7891   -5.2227    4.4865 C.3       1 <0>         0.0000
     12 C12         3.3262   -3.3340    1.4645 C.3       1 <0>         0.1382
     13 C13         2.2273   -3.9675    0.5485 C.3       1 <0>         0.0000
     14 C14         3.5426   -4.2948    2.6428 C.3       1 <0>         0.0000
     15 C15         4.2322   -6.3446    3.5783 C.3       1 <0>         0.0000
     16 C16         1.7910   -2.9885   -0.5996 C.3       1 <0>         0.1382
     17 C17         4.0987   -5.6679    2.1953 C.3       1 <0>         0.0610
     18 C18         2.9581   -2.6968   -1.5724 C.3       1 <0>         0.0000
     19 C19         5.4441   -5.6231    1.4437 C.3       1 <0>         0.0000
     20 C20         4.2804   -8.7995    3.0961 C.3       1 <0>         0.0000
     21 C21         4.4210   -8.1204    6.0709 C.3       1 <0>         0.0000
     22 C22         5.5625   -7.9310    5.0711 C.3       1 <0>         0.0000
     23 C23         4.9465   -8.4036    7.4722 C.3       1 <0>         0.2800
     24 C24         5.0782   -7.6104    3.6426 C.3       1 <0>         0.0000
     25 O1          7.3848  -11.1902    8.2842 O.3       1 <0>        -0.8167
     26 O2         -1.3014   -0.6098   -2.1336 O.2       1 <0>        -0.5700
     27 O3          2.6287   -7.4120    1.3872 O.2       1 <0>        -0.5700
     28 O4          5.9671   -9.9346    9.8447 O.2       1 <0>        -0.8167
     29 O5          7.7241   -8.7729    8.5858 O.2       1 <0>        -0.8167
     30 O6          5.7139   -9.5992    7.4420 O.3       1 <0>        -0.4637
     31 S1          6.7949   -9.9005    8.6399 S.o2      1 <0>         1.6337
     32 H1          1.7714   -0.2251    1.6135 H         1 <0>         0.1500
     33 H2          0.0003    0.0002   -0.0001 H         1 <0>         0.1500
     34 H3          3.4155   -1.5047    2.7491 H         1 <0>         0.1500
     35 H4         -0.9660   -3.0949   -2.7512 H         1 <0>         0.0000
     36 H5          0.6022   -2.4064   -3.2029 H         1 <0>         0.0000
     37 H6          3.4445   -5.3628   -0.6369 H         1 <0>         0.0000
     38 H7          1.7735   -5.8804   -0.3920 H         1 <0>         0.0000
     39 H8         -0.1524   -3.9705   -0.6847 H         1 <0>         0.0000
     40 H9          0.9430   -4.4864   -1.9618 H         1 <0>         0.0000
     41 H10         4.0144   -3.1796    4.4653 H         1 <0>         0.0000
     42 H11         5.3994   -3.4390    3.3963 H         1 <0>         0.0000
     43 H12         5.8694   -5.3151    4.6450 H         1 <0>         0.0000
     44 H13         4.3104   -5.2623    5.4714 H         1 <0>         0.0000
     45 H14         4.2678   -3.2271    0.9157 H         1 <0>         0.0000
     46 H15         1.3362   -4.1106    1.1841 H         1 <0>         0.0000
     47 H16         2.5535   -4.4515    3.1073 H         1 <0>         0.0000
     48 H17         3.2283   -6.6104    3.9404 H         1 <0>         0.0000
     49 H18         3.2850   -3.6286   -2.0152 H         1 <0>         0.0000
     50 H19         3.7697   -2.2435   -1.0182 H         1 <0>         0.0000
     51 H20         2.6102   -2.0207   -2.3426 H         1 <0>         0.0000
     52 H21         6.2005   -5.2008    2.0953 H         1 <0>         0.0000
     53 H22         5.3355   -5.0069    0.5586 H         1 <0>         0.0000
     54 H23         5.7248   -6.6306    1.1587 H         1 <0>         0.0000
     55 H24         3.3864   -8.9844    3.7009 H         1 <0>         0.0000
     56 H25         4.8837   -9.7137    3.0936 H         1 <0>         0.0000
     57 H26         3.9524   -8.6071    2.0692 H         1 <0>         0.0000
     58 H27         3.7837   -7.2296    6.1075 H         1 <0>         0.0000
     59 H28         3.7709   -8.9453    5.7540 H         1 <0>         0.0000
     60 H29         6.1629   -8.8497    5.0463 H         1 <0>         0.0000
     61 H30         6.2265   -7.1317    5.4240 H         1 <0>         0.0000
     62 H31         4.1211   -8.5373    8.1788 H         1 <0>         0.0000
     63 H32         5.5872   -7.5880    7.8221 H         1 <0>         0.0000
     64 H33         5.9579   -7.4756    2.9974 H         1 <0>         0.0000
@<TRIPOS>BOND
     1    1    3 2
     2    1    4 1
     3    2    4 2
     4    2    5 1
     5    3   12 1
     6    4   16 1
     7    5    7 1
     8    5   26 2
     9    6    8 1
    10    6   17 1
    11    6   27 2
    12    7    9 1
    13    8   13 1
    14    9   16 1
    15   10   11 1
    16   10   14 1
    17   11   15 1
    18   12   13 1
    19   12   14 1
    20   13   16 1
    21   14   17 1
    22   15   17 1
    23   15   24 1
    24   16   18 1
    25   17   19 1
    26   20   24 1
    27   21   22 1
    28   21   23 1
    29   22   24 1
    30   23   30 1
    31   25   31 1
    32   28   31 2
    33   29   31 2
    34   30   31 1
    35    1   32 1
    36    2   33 1
    37    3   34 1
    38    7   35 1
    39    7   36 1
    40    8   37 1
    41    8   38 1
    42    9   39 1
    43    9   40 1
    44   10   41 1
    45   10   42 1
    46   11   43 1
    47   11   44 1
    48   12   45 1
    49   13   46 1
    50   14   47 1
    51   15   48 1
    52   18   49 1
    53   18   50 1
    54   18   51 1
    55   19   52 1
    56   19   53 1
    57   19   54 1
    58   20   55 1
    59   20   56 1
    60   20   57 1
    61   21   58 1
    62   21   59 1
    63   22   60 1
    64   22   61 1
    65   23   62 1
    66   23   63 1
    67   24   64 1

@<TRIPOS>MOLECULE
DKPES_CSD_MMMF_1_23
   64    67     0     0     0
SMALL
USER_CHARGES

@<TRIPOS>ATOM
      1 C1          2.0121   -1.2143    1.2319 C.2       1 <0>        -0.1500
      2 C2          0.3162   -0.9298   -0.4630 C.2       1 <0>        -0.1356
      3 C3          2.9245   -1.9459    1.8863 C.2       1 <0>        -0.2882
      4 C4          1.3270   -1.6661    0.0290 C.2       1 <0>        -0.1382
      5 C5         -0.4261   -1.3440   -1.6772 C.2       1 <0>         0.4946
      6 C6          3.0520   -6.2645    1.2605 C.2       1 <0>         0.4480
      7 C7         -0.0521   -2.6371   -2.3563 C.3       1 <0>         0.0610
      8 C8          2.6249   -5.3856    0.0869 C.3       1 <0>         0.0610
      9 C9          0.6099   -3.6118   -1.3906 C.3       1 <0>         0.0000
     10 C10         4.4784   -3.8939    3.7777 C.3       1 <0>         0.0000
     11 C11         4.7891   -5.2227    4.4865 C.3       1 <0>         0.0000
     12 C12         3.3262   -3.3340    1.4645 C.3       1 <0>         0.1382
     13 C13         2.2273   -3.9675    0.5485 C.3       1 <0>         0.0000
     14 C14         3.5426   -4.2948    2.6428 C.3       1 <0>         0.0000
     15 C15         4.2322   -6.3446    3.5783 C.3       1 <0>         0.0000
     16 C16         1.7910   -2.9885   -0.5996 C.3       1 <0>         0.1382
     17 C17         4.0987   -5.6679    2.1953 C.3       1 <0>         0.0610
     18 C18         2.9581   -2.6968   -1.5724 C.3       1 <0>         0.0000
     19 C19         5.4441   -5.6231    1.4437 C.3       1 <0>         0.0000
     20 C20         4.5183   -8.6617    2.6779 C.3       1 <0>         0.0000
     21 C21         5.5328   -9.6867    5.0816 C.3       1 <0>         0.0000
     22 C22         5.1520   -8.2058    5.0632 C.3       1 <0>         0.0000
     23 C23         6.9113   -9.9170    4.4760 C.3       1 <0>         0.2800
     24 C24         5.0782   -7.6104    3.6426 C.3       1 <0>         0.0000
     25 O1          9.4243  -10.9171    3.5387 O.3       1 <0>        -0.8167
     26 O2         -1.3014   -0.6098   -2.1336 O.2       1 <0>        -0.5700
     27 O3          2.6287   -7.4120    1.3872 O.2       1 <0>        -0.5700
     28 O4          7.6748  -12.0786    2.2691 O.2       1 <0>        -0.8167
     29 O5          8.7425  -13.1924    4.1772 O.2       1 <0>        -0.8167
     30 O6          7.2132  -11.3043    4.5356 O.3       1 <0>        -0.4637
     31 S1          8.3670  -11.9271    3.5481 S.o2      1 <0>         1.6337
     32 H1          1.7714   -0.2251    1.6135 H         1 <0>         0.1500
     33 H2          0.0003    0.0002   -0.0001 H         1 <0>         0.1500
     34 H3          3.4155   -1.5047    2.7491 H         1 <0>         0.1500
     35 H4         -0.9660   -3.0949   -2.7512 H         1 <0>         0.0000
     36 H5          0.6022   -2.4064   -3.2029 H         1 <0>         0.0000
     37 H6          3.4445   -5.3628   -0.6369 H         1 <0>         0.0000
     38 H7          1.7735   -5.8804   -0.3920 H         1 <0>         0.0000
     39 H8         -0.1524   -3.9705   -0.6847 H         1 <0>         0.0000
     40 H9          0.9430   -4.4864   -1.9618 H         1 <0>         0.0000
     41 H10         4.0144   -3.1796    4.4653 H         1 <0>         0.0000
     42 H11         5.3994   -3.4390    3.3963 H         1 <0>         0.0000
     43 H12         5.8694   -5.3151    4.6450 H         1 <0>         0.0000
     44 H13         4.3104   -5.2623    5.4714 H         1 <0>         0.0000
     45 H14         4.2678   -3.2271    0.9157 H         1 <0>         0.0000
     46 H15         1.3362   -4.1106    1.1841 H         1 <0>         0.0000
     47 H16         2.5535   -4.4515    3.1073 H         1 <0>         0.0000
     48 H17         3.2283   -6.6104    3.9404 H         1 <0>         0.0000
     49 H18         3.2850   -3.6286   -2.0152 H         1 <0>         0.0000
     50 H19         3.7697   -2.2435   -1.0182 H         1 <0>         0.0000
     51 H20         2.6102   -2.0207   -2.3426 H         1 <0>         0.0000
     52 H21         6.2005   -5.2008    2.0953 H         1 <0>         0.0000
     53 H22         5.3355   -5.0069    0.5586 H         1 <0>         0.0000
     54 H23         5.7248   -6.6306    1.1587 H         1 <0>         0.0000
     55 H24         3.4984   -8.9472    2.9564 H         1 <0>         0.0000
     56 H25         5.1358   -9.5663    2.6762 H         1 <0>         0.0000
     57 H26         4.4862   -8.2713    1.6553 H         1 <0>         0.0000
     58 H27         5.5287  -10.0770    6.1056 H         1 <0>         0.0000
     59 H28         4.7911  -10.2770    4.5294 H         1 <0>         0.0000
     60 H29         5.8943   -7.6456    5.6465 H         1 <0>         0.0000
     61 H30         4.1882   -8.0715    5.5705 H         1 <0>         0.0000
     62 H31         7.6784   -9.3694    5.0327 H         1 <0>         0.0000
     63 H32         6.9363   -9.6005    3.4285 H         1 <0>         0.0000
     64 H33         6.0978   -7.3661    3.3127 H         1 <0>         0.0000
@<TRIPOS>BOND
     1    1    3 2
     2    1    4 1
     3    2    4 2
     4    2    5 1
     5    3   12 1
     6    4   16 1
     7    5    7 1
     8    5   26 2
     9    6    8 1
    10    6   17 1
    11    6   27 2
    12    7    9 1
    13    8   13 1
    14    9   16 1
    15   10   11 1
    16   10   14 1
    17   11   15 1
    18   12   13 1
    19   12   14 1
    20   13   16 1
    21   14   17 1
    22   15   17 1
    23   15   24 1
    24   16   18 1
    25   17   19 1
    26   20   24 1
    27   21   22 1
    28   21   23 1
    29   22   24 1
    30   23   30 1
    31   25   31 1
    32   28   31 2
    33   29   31 2
    34   30   31 1
    35    1   32 1
    36    2   33 1
    37    3   34 1
    38    7   35 1
    39    7   36 1
    40    8   37 1
    41    8   38 1
    42    9   39 1
    43    9   40 1
    44   10   41 1
    45   10   42 1
    46   11   43 1
    47   11   44 1
    48   12   45 1
    49   13   46 1
    50   14   47 1
    51   15   48 1
    52   18   49 1
    53   18   50 1
    54   18   51 1
    55   19   52 1
    56   19   53 1
    57   19   54 1
    58   20   55 1
    59   20   56 1
    60   20   57 1
    61   21   58 1
    62   21   59 1
    63   22   60 1
    64   22   61 1
    65   23   62 1
    66   23   63 1
    67   24   64 1

@<TRIPOS>MOLECULE
DKPES_CSD_MMMF_1_15
   64    67     0     0     0
SMALL
USER_CHARGES

@<TRIPOS>ATOM
      1 C1          2.0121   -1.2143    1.2319 C.2       1 <0>        -0.1500
      2 C2          0.3162   -0.9298   -0.4630 C.2       1 <0>        -0.1356
      3 C3          2.9245   -1.9459    1.8863 C.2       1 <0>        -0.2882
      4 C4          1.3270   -1.6661    0.0290 C.2       1 <0>        -0.1382
      5 C5         -0.4261   -1.3440   -1.6772 C.2       1 <0>         0.4946
      6 C6          3.0520   -6.2645    1.2605 C.2       1 <0>         0.4480
      7 C7         -0.0521   -2.6371   -2.3563 C.3       1 <0>         0.0610
      8 C8          2.6249   -5.3856    0.0869 C.3       1 <0>         0.0610
      9 C9          0.6099   -3.6118   -1.3906 C.3       1 <0>         0.0000
     10 C10         4.4784   -3.8939    3.7777 C.3       1 <0>         0.0000
     11 C11         4.7891   -5.2227    4.4865 C.3       1 <0>         0.0000
     12 C12         3.3262   -3.3340    1.4645 C.3       1 <0>         0.1382
     13 C13         2.2273   -3.9675    0.5485 C.3       1 <0>         0.0000
     14 C14         3.5426   -4.2948    2.6428 C.3       1 <0>         0.0000
     15 C15         4.2322   -6.3446    3.5783 C.3       1 <0>         0.0000
     16 C16         1.7910   -2.9885   -0.5996 C.3       1 <0>         0.1382
     17 C17         4.0987   -5.6679    2.1953 C.3       1 <0>         0.0610
     18 C18         2.9581   -2.6968   -1.5724 C.3       1 <0>         0.0000
     19 C19         5.4441   -5.6231    1.4437 C.3       1 <0>         0.0000
     20 C20         4.6826   -8.4407    4.8686 C.3       1 <0>         0.0000
     21 C21         7.4569   -8.5116    3.2985 C.3       1 <0>         0.0000
     22 C22         6.5907   -7.3138    3.6905 C.3       1 <0>         0.0000
     23 C23         8.9411   -8.1821    3.3905 C.3       1 <0>         0.2800
     24 C24         5.0782   -7.6104    3.6426 C.3       1 <0>         0.0000
     25 O1         10.7194   -7.0597    6.5444 O.3       1 <0>        -0.8167
     26 O2         -1.3014   -0.6098   -2.1336 O.2       1 <0>        -0.5700
     27 O3          2.6287   -7.4120    1.3872 O.2       1 <0>        -0.5700
     28 O4         11.0607   -6.2402    4.2568 O.2       1 <0>        -0.8167
     29 O5         11.5738   -8.5760    4.8066 O.2       1 <0>        -0.8167
     30 O6          9.2450   -7.8001    4.7250 O.3       1 <0>        -0.4637
     31 S1         10.7834   -7.3867    5.1208 S.o2      1 <0>         1.6337
     32 H1          1.7714   -0.2251    1.6135 H         1 <0>         0.1500
     33 H2          0.0003    0.0002   -0.0001 H         1 <0>         0.1500
     34 H3          3.4155   -1.5047    2.7491 H         1 <0>         0.1500
     35 H4         -0.9660   -3.0949   -2.7512 H         1 <0>         0.0000
     36 H5          0.6022   -2.4064   -3.2029 H         1 <0>         0.0000
     37 H6          3.4445   -5.3628   -0.6369 H         1 <0>         0.0000
     38 H7          1.7735   -5.8804   -0.3920 H         1 <0>         0.0000
     39 H8         -0.1524   -3.9705   -0.6847 H         1 <0>         0.0000
     40 H9          0.9430   -4.4864   -1.9618 H         1 <0>         0.0000
     41 H10         4.0144   -3.1796    4.4653 H         1 <0>         0.0000
     42 H11         5.3994   -3.4390    3.3963 H         1 <0>         0.0000
     43 H12         5.8694   -5.3151    4.6450 H         1 <0>         0.0000
     44 H13         4.3104   -5.2623    5.4714 H         1 <0>         0.0000
     45 H14         4.2678   -3.2271    0.9157 H         1 <0>         0.0000
     46 H15         1.3362   -4.1106    1.1841 H         1 <0>         0.0000
     47 H16         2.5535   -4.4515    3.1073 H         1 <0>         0.0000
     48 H17         3.2283   -6.6104    3.9404 H         1 <0>         0.0000
     49 H18         3.2850   -3.6286   -2.0152 H         1 <0>         0.0000
     50 H19         3.7697   -2.2435   -1.0182 H         1 <0>         0.0000
     51 H20         2.6102   -2.0207   -2.3426 H         1 <0>         0.0000
     52 H21         6.2005   -5.2008    2.0953 H         1 <0>         0.0000
     53 H22         5.3355   -5.0069    0.5586 H         1 <0>         0.0000
     54 H23         5.7248   -6.6306    1.1587 H         1 <0>         0.0000
     55 H24         4.8689   -7.8872    5.7950 H         1 <0>         0.0000
     56 H25         5.2494   -9.3769    4.9126 H         1 <0>         0.0000
     57 H26         3.6169   -8.6907    4.8400 H         1 <0>         0.0000
     58 H27         7.2468   -9.3719    3.9440 H         1 <0>         0.0000
     59 H28         7.2199   -8.8342    2.2771 H         1 <0>         0.0000
     60 H29         6.8129   -6.4825    3.0088 H         1 <0>         0.0000
     61 H30         6.8694   -6.9772    4.6971 H         1 <0>         0.0000
     62 H31         9.1987   -7.3530    2.7237 H         1 <0>         0.0000
     63 H32         9.5521   -9.0523    3.1303 H         1 <0>         0.0000
     64 H33         4.8690   -8.2160    2.7494 H         1 <0>         0.0000
@<TRIPOS>BOND
     1    1    3 2
     2    1    4 1
     3    2    4 2
     4    2    5 1
     5    3   12 1
     6    4   16 1
     7    5    7 1
     8    5   26 2
     9    6    8 1
    10    6   17 1
    11    6   27 2
    12    7    9 1
    13    8   13 1
    14    9   16 1
    15   10   11 1
    16   10   14 1
    17   11   15 1
    18   12   13 1
    19   12   14 1
    20   13   16 1
    21   14   17 1
    22   15   17 1
    23   15   24 1
    24   16   18 1
    25   17   19 1
    26   20   24 1
    27   21   22 1
    28   21   23 1
    29   22   24 1
    30   23   30 1
    31   25   31 1
    32   28   31 2
    33   29   31 2
    34   30   31 1
    35    1   32 1
    36    2   33 1
    37    3   34 1
    38    7   35 1
    39    7   36 1
    40    8   37 1
    41    8   38 1
    42    9   39 1
    43    9   40 1
    44   10   41 1
    45   10   42 1
    46   11   43 1
    47   11   44 1
    48   12   45 1
    49   13   46 1
    50   14   47 1
    51   15   48 1
    52   18   49 1
    53   18   50 1
    54   18   51 1
    55   19   52 1
    56   19   53 1
    57   19   54 1
    58   20   55 1
    59   20   56 1
    60   20   57 1
    61   21   58 1
    62   21   59 1
    63   22   60 1
    64   22   61 1
    65   23   62 1
    66   23   63 1
    67   24   64 1

@<TRIPOS>MOLECULE
DKPES_CSD_MMMF_1_18
   64    67     0     0     0
SMALL
USER_CHARGES

@<TRIPOS>ATOM
      1 C1          2.0121   -1.2143    1.2319 C.2       1 <0>        -0.1500
      2 C2          0.3162   -0.9298   -0.4630 C.2       1 <0>        -0.1356
      3 C3          2.9245   -1.9459    1.8863 C.2       1 <0>        -0.2882
      4 C4          1.3270   -1.6661    0.0290 C.2       1 <0>        -0.1382
      5 C5         -0.4261   -1.3440   -1.6772 C.2       1 <0>         0.4946
      6 C6          3.0520   -6.2645    1.2605 C.2       1 <0>         0.4480
      7 C7         -0.0521   -2.6371   -2.3563 C.3       1 <0>         0.0610
      8 C8          2.6249   -5.3856    0.0869 C.3       1 <0>         0.0610
      9 C9          0.6099   -3.6118   -1.3906 C.3       1 <0>         0.0000
     10 C10         4.4784   -3.8939    3.7777 C.3       1 <0>         0.0000
     11 C11         4.7891   -5.2227    4.4865 C.3       1 <0>         0.0000
     12 C12         3.3262   -3.3340    1.4645 C.3       1 <0>         0.1382
     13 C13         2.2273   -3.9675    0.5485 C.3       1 <0>         0.0000
     14 C14         3.5426   -4.2948    2.6428 C.3       1 <0>         0.0000
     15 C15         4.2322   -6.3446    3.5783 C.3       1 <0>         0.0000
     16 C16         1.7910   -2.9885   -0.5996 C.3       1 <0>         0.1382
     17 C17         4.0987   -5.6679    2.1953 C.3       1 <0>         0.0610
     18 C18         2.9581   -2.6968   -1.5724 C.3       1 <0>         0.0000
     19 C19         5.4441   -5.6231    1.4437 C.3       1 <0>         0.0000
     20 C20         4.5183   -8.6617    2.6779 C.3       1 <0>         0.0000
     21 C21         5.9758   -9.4919    5.1403 C.3       1 <0>         0.0000
     22 C22         5.1520   -8.2058    5.0632 C.3       1 <0>         0.0000
     23 C23         7.4225   -9.2547    4.7271 C.3       1 <0>         0.2800
     24 C24         5.0782   -7.6104    3.6426 C.3       1 <0>         0.0000
     25 O1          9.1591  -10.0217    6.8694 O.3       1 <0>        -0.8167
     26 O2         -1.3014   -0.6098   -2.1336 O.2       1 <0>        -0.5700
     27 O3          2.6287   -7.4120    1.3872 O.2       1 <0>        -0.5700
     28 O4          7.2927   -8.7830    7.8713 O.2       1 <0>        -0.8167
     29 O5          9.4353   -7.6542    7.4762 O.2       1 <0>        -0.8167
     30 O6          7.9926   -8.2799    5.5896 O.3       1 <0>        -0.4637
     31 S1          8.5203   -8.7233    7.0793 S.o2      1 <0>         1.6337
     32 H1          1.7714   -0.2251    1.6135 H         1 <0>         0.1500
     33 H2          0.0003    0.0002   -0.0001 H         1 <0>         0.1500
     34 H3          3.4155   -1.5047    2.7491 H         1 <0>         0.1500
     35 H4         -0.9660   -3.0949   -2.7512 H         1 <0>         0.0000
     36 H5          0.6022   -2.4064   -3.2029 H         1 <0>         0.0000
     37 H6          3.4445   -5.3628   -0.6369 H         1 <0>         0.0000
     38 H7          1.7735   -5.8804   -0.3920 H         1 <0>         0.0000
     39 H8         -0.1524   -3.9705   -0.6847 H         1 <0>         0.0000
     40 H9          0.9430   -4.4864   -1.9618 H         1 <0>         0.0000
     41 H10         4.0144   -3.1796    4.4653 H         1 <0>         0.0000
     42 H11         5.3994   -3.4390    3.3963 H         1 <0>         0.0000
     43 H12         5.8694   -5.3151    4.6450 H         1 <0>         0.0000
     44 H13         4.3104   -5.2623    5.4714 H         1 <0>         0.0000
     45 H14         4.2678   -3.2271    0.9157 H         1 <0>         0.0000
     46 H15         1.3362   -4.1106    1.1841 H         1 <0>         0.0000
     47 H16         2.5535   -4.4515    3.1073 H         1 <0>         0.0000
     48 H17         3.2283   -6.6104    3.9404 H         1 <0>         0.0000
     49 H18         3.2850   -3.6286   -2.0152 H         1 <0>         0.0000
     50 H19         3.7697   -2.2435   -1.0182 H         1 <0>         0.0000
     51 H20         2.6102   -2.0207   -2.3426 H         1 <0>         0.0000
     52 H21         6.2005   -5.2008    2.0953 H         1 <0>         0.0000
     53 H22         5.3355   -5.0069    0.5586 H         1 <0>         0.0000
     54 H23         5.7248   -6.6306    1.1587 H         1 <0>         0.0000
     55 H24         3.4984   -8.9472    2.9564 H         1 <0>         0.0000
     56 H25         5.1358   -9.5663    2.6762 H         1 <0>         0.0000
     57 H26         4.4862   -8.2713    1.6553 H         1 <0>         0.0000
     58 H27         5.9628   -9.9021    6.1564 H         1 <0>         0.0000
     59 H28         5.5368  -10.2638    4.4961 H         1 <0>         0.0000
     60 H29         5.5971   -7.4633    5.7383 H         1 <0>         0.0000
     61 H30         4.1381   -8.4002    5.4353 H         1 <0>         0.0000
     62 H31         7.4787   -8.8849    3.6983 H         1 <0>         0.0000
     63 H32         8.0085  -10.1757    4.8078 H         1 <0>         0.0000
     64 H33         6.0978   -7.3661    3.3127 H         1 <0>         0.0000
@<TRIPOS>BOND
     1    1    3 2
     2    1    4 1
     3    2    4 2
     4    2    5 1
     5    3   12 1
     6    4   16 1
     7    5    7 1
     8    5   26 2
     9    6    8 1
    10    6   17 1
    11    6   27 2
    12    7    9 1
    13    8   13 1
    14    9   16 1
    15   10   11 1
    16   10   14 1
    17   11   15 1
    18   12   13 1
    19   12   14 1
    20   13   16 1
    21   14   17 1
    22   15   17 1
    23   15   24 1
    24   16   18 1
    25   17   19 1
    26   20   24 1
    27   21   22 1
    28   21   23 1
    29   22   24 1
    30   23   30 1
    31   25   31 1
    32   28   31 2
    33   29   31 2
    34   30   31 1
    35    1   32 1
    36    2   33 1
    37    3   34 1
    38    7   35 1
    39    7   36 1
    40    8   37 1
    41    8   38 1
    42    9   39 1
    43    9   40 1
    44   10   41 1
    45   10   42 1
    46   11   43 1
    47   11   44 1
    48   12   45 1
    49   13   46 1
    50   14   47 1
    51   15   48 1
    52   18   49 1
    53   18   50 1
    54   18   51 1
    55   19   52 1
    56   19   53 1
    57   19   54 1
    58   20   55 1
    59   20   56 1
    60   20   57 1
    61   21   58 1
    62   21   59 1
    63   22   60 1
    64   22   61 1
    65   23   62 1
    66   23   63 1
    67   24   64 1

@<TRIPOS>MOLECULE
DKPES_CSD_MMMF_1_26
   64    67     0     0     0
SMALL
USER_CHARGES

@<TRIPOS>ATOM
      1 C1          2.0121   -1.2143    1.2319 C.2       1 <0>        -0.1500
      2 C2          0.3162   -0.9298   -0.4630 C.2       1 <0>        -0.1356
      3 C3          2.9245   -1.9459    1.8863 C.2       1 <0>        -0.2882
      4 C4          1.3270   -1.6661    0.0290 C.2       1 <0>        -0.1382
      5 C5         -0.4261   -1.3440   -1.6772 C.2       1 <0>         0.4946
      6 C6          3.0520   -6.2645    1.2605 C.2       1 <0>         0.4480
      7 C7         -0.0521   -2.6371   -2.3563 C.3       1 <0>         0.0610
      8 C8          2.6249   -5.3856    0.0869 C.3       1 <0>         0.0610
      9 C9          0.6099   -3.6118   -1.3906 C.3       1 <0>         0.0000
     10 C10         4.4784   -3.8939    3.7777 C.3       1 <0>         0.0000
     11 C11         4.7891   -5.2227    4.4865 C.3       1 <0>         0.0000
     12 C12         3.3262   -3.3340    1.4645 C.3       1 <0>         0.1382
     13 C13         2.2273   -3.9675    0.5485 C.3       1 <0>         0.0000
     14 C14         3.5426   -4.2948    2.6428 C.3       1 <0>         0.0000
     15 C15         4.2322   -6.3446    3.5783 C.3       1 <0>         0.0000
     16 C16         1.7910   -2.9885   -0.5996 C.3       1 <0>         0.1382
     17 C17         4.0987   -5.6679    2.1953 C.3       1 <0>         0.0610
     18 C18         2.9581   -2.6968   -1.5724 C.3       1 <0>         0.0000
     19 C19         5.4441   -5.6231    1.4437 C.3       1 <0>         0.0000
     20 C20         4.6826   -8.4407    4.8686 C.3       1 <0>         0.0000
     21 C21         7.4569   -8.5116    3.2985 C.3       1 <0>         0.0000
     22 C22         6.5907   -7.3138    3.6905 C.3       1 <0>         0.0000
     23 C23         8.9411   -8.1821    3.3905 C.3       1 <0>         0.2800
     24 C24         5.0782   -7.6104    3.6426 C.3       1 <0>         0.0000
     25 O1         10.2091  -10.0104    5.1914 O.3       1 <0>        -0.8167
     26 O2         -1.3014   -0.6098   -2.1336 O.2       1 <0>        -0.5700
     27 O3          2.6287   -7.4120    1.3872 O.2       1 <0>        -0.5700
     28 O4          8.0937   -9.3322    6.2339 O.2       1 <0>        -0.8167
     29 O5         10.1951   -8.2793    6.9385 O.2       1 <0>        -0.8167
     30 O6          9.2450   -7.8001    4.7250 O.3       1 <0>        -0.4637
     31 S1          9.4591   -8.9553    5.8713 S.o2      1 <0>         1.6337
     32 H1          1.7714   -0.2251    1.6135 H         1 <0>         0.1500
     33 H2          0.0003    0.0002   -0.0001 H         1 <0>         0.1500
     34 H3          3.4155   -1.5047    2.7491 H         1 <0>         0.1500
     35 H4         -0.9660   -3.0949   -2.7512 H         1 <0>         0.0000
     36 H5          0.6022   -2.4064   -3.2029 H         1 <0>         0.0000
     37 H6          3.4445   -5.3628   -0.6369 H         1 <0>         0.0000
     38 H7          1.7735   -5.8804   -0.3920 H         1 <0>         0.0000
     39 H8         -0.1524   -3.9705   -0.6847 H         1 <0>         0.0000
     40 H9          0.9430   -4.4864   -1.9618 H         1 <0>         0.0000
     41 H10         4.0144   -3.1796    4.4653 H         1 <0>         0.0000
     42 H11         5.3994   -3.4390    3.3963 H         1 <0>         0.0000
     43 H12         5.8694   -5.3151    4.6450 H         1 <0>         0.0000
     44 H13         4.3104   -5.2623    5.4714 H         1 <0>         0.0000
     45 H14         4.2678   -3.2271    0.9157 H         1 <0>         0.0000
     46 H15         1.3362   -4.1106    1.1841 H         1 <0>         0.0000
     47 H16         2.5535   -4.4515    3.1073 H         1 <0>         0.0000
     48 H17         3.2283   -6.6104    3.9404 H         1 <0>         0.0000
     49 H18         3.2850   -3.6286   -2.0152 H         1 <0>         0.0000
     50 H19         3.7697   -2.2435   -1.0182 H         1 <0>         0.0000
     51 H20         2.6102   -2.0207   -2.3426 H         1 <0>         0.0000
     52 H21         6.2005   -5.2008    2.0953 H         1 <0>         0.0000
     53 H22         5.3355   -5.0069    0.5586 H         1 <0>         0.0000
     54 H23         5.7248   -6.6306    1.1587 H         1 <0>         0.0000
     55 H24         4.8689   -7.8872    5.7950 H         1 <0>         0.0000
     56 H25         5.2494   -9.3769    4.9126 H         1 <0>         0.0000
     57 H26         3.6169   -8.6907    4.8400 H         1 <0>         0.0000
     58 H27         7.2468   -9.3719    3.9440 H         1 <0>         0.0000
     59 H28         7.2199   -8.8342    2.2771 H         1 <0>         0.0000
     60 H29         6.8129   -6.4825    3.0088 H         1 <0>         0.0000
     61 H30         6.8694   -6.9772    4.6971 H         1 <0>         0.0000
     62 H31         9.1987   -7.3530    2.7237 H         1 <0>         0.0000
     63 H32         9.5521   -9.0523    3.1303 H         1 <0>         0.0000
     64 H33         4.8690   -8.2160    2.7494 H         1 <0>         0.0000
@<TRIPOS>BOND
     1    1    3 2
     2    1    4 1
     3    2    4 2
     4    2    5 1
     5    3   12 1
     6    4   16 1
     7    5    7 1
     8    5   26 2
     9    6    8 1
    10    6   17 1
    11    6   27 2
    12    7    9 1
    13    8   13 1
    14    9   16 1
    15   10   11 1
    16   10   14 1
    17   11   15 1
    18   12   13 1
    19   12   14 1
    20   13   16 1
    21   14   17 1
    22   15   17 1
    23   15   24 1
    24   16   18 1
    25   17   19 1
    26   20   24 1
    27   21   22 1
    28   21   23 1
    29   22   24 1
    30   23   30 1
    31   25   31 1
    32   28   31 2
    33   29   31 2
    34   30   31 1
    35    1   32 1
    36    2   33 1
    37    3   34 1
    38    7   35 1
    39    7   36 1
    40    8   37 1
    41    8   38 1
    42    9   39 1
    43    9   40 1
    44   10   41 1
    45   10   42 1
    46   11   43 1
    47   11   44 1
    48   12   45 1
    49   13   46 1
    50   14   47 1
    51   15   48 1
    52   18   49 1
    53   18   50 1
    54   18   51 1
    55   19   52 1
    56   19   53 1
    57   19   54 1
    58   20   55 1
    59   20   56 1
    60   20   57 1
    61   21   58 1
    62   21   59 1
    63   22   60 1
    64   22   61 1
    65   23   62 1
    66   23   63 1
    67   24   64 1

@<TRIPOS>MOLECULE
DKPES_CSD_MMMF_1_0
   64    67     0     0     0
SMALL
USER_CHARGES

@<TRIPOS>ATOM
      1 C1          2.0121   -1.2143    1.2319 C.2       1 <0>        -0.1500
      2 C2          0.3162   -0.9298   -0.4630 C.2       1 <0>        -0.1356
      3 C3          2.9245   -1.9459    1.8863 C.2       1 <0>        -0.2882
      4 C4          1.3270   -1.6661    0.0290 C.2       1 <0>        -0.1382
      5 C5         -0.4261   -1.3440   -1.6772 C.2       1 <0>         0.4946
      6 C6          3.0520   -6.2645    1.2605 C.2       1 <0>         0.4480
      7 C7         -0.0521   -2.6371   -2.3563 C.3       1 <0>         0.0610
      8 C8          2.6249   -5.3856    0.0869 C.3       1 <0>         0.0610
      9 C9          0.6099   -3.6118   -1.3906 C.3       1 <0>         0.0000
     10 C10         4.4784   -3.8939    3.7777 C.3       1 <0>         0.0000
     11 C11         4.7891   -5.2227    4.4865 C.3       1 <0>         0.0000
     12 C12         3.3262   -3.3340    1.4645 C.3       1 <0>         0.1382
     13 C13         2.2273   -3.9675    0.5485 C.3       1 <0>         0.0000
     14 C14         3.5426   -4.2948    2.6428 C.3       1 <0>         0.0000
     15 C15         4.2322   -6.3446    3.5783 C.3       1 <0>         0.0000
     16 C16         1.7910   -2.9885   -0.5996 C.3       1 <0>         0.1382
     17 C17         4.0987   -5.6679    2.1953 C.3       1 <0>         0.0610
     18 C18         2.9581   -2.6968   -1.5724 C.3       1 <0>         0.0000
     19 C19         5.4441   -5.6231    1.4437 C.3       1 <0>         0.0000
     20 C20         4.5183   -8.6617    2.6779 C.3       1 <0>         0.0000
     21 C21         6.3229   -9.1702    5.2571 C.3       1 <0>         0.0000
     22 C22         5.1520   -8.2058    5.0632 C.3       1 <0>         0.0000
     23 C23         6.3373   -9.7563    6.6629 C.3       1 <0>         0.2800
     24 C24         5.0782   -7.6104    3.6426 C.3       1 <0>         0.0000
     25 O1          8.8862  -12.2533    7.9425 O.3       1 <0>        -0.8167
     26 O2         -1.3014   -0.6098   -2.1336 O.2       1 <0>        -0.5700
     27 O3          2.6287   -7.4120    1.3872 O.2       1 <0>        -0.5700
     28 O4          6.4736  -12.2095    8.3883 O.2       1 <0>        -0.8167
     29 O5          7.8939  -10.3682    9.1717 O.2       1 <0>        -0.8167
     30 O6          7.4346  -10.6521    6.7758 O.3       1 <0>        -0.4637
     31 S1          7.6994  -11.4369    8.1929 S.o2      1 <0>         1.6337
     32 H1          1.7714   -0.2251    1.6135 H         1 <0>         0.1500
     33 H2          0.0003    0.0002   -0.0001 H         1 <0>         0.1500
     34 H3          3.4155   -1.5047    2.7491 H         1 <0>         0.1500
     35 H4         -0.9660   -3.0949   -2.7512 H         1 <0>         0.0000
     36 H5          0.6022   -2.4064   -3.2029 H         1 <0>         0.0000
     37 H6          3.4445   -5.3628   -0.6369 H         1 <0>         0.0000
     38 H7          1.7735   -5.8804   -0.3920 H         1 <0>         0.0000
     39 H8         -0.1524   -3.9705   -0.6847 H         1 <0>         0.0000
     40 H9          0.9430   -4.4864   -1.9618 H         1 <0>         0.0000
     41 H10         4.0144   -3.1796    4.4653 H         1 <0>         0.0000
     42 H11         5.3994   -3.4390    3.3963 H         1 <0>         0.0000
     43 H12         5.8694   -5.3151    4.6450 H         1 <0>         0.0000
     44 H13         4.3104   -5.2623    5.4714 H         1 <0>         0.0000
     45 H14         4.2678   -3.2271    0.9157 H         1 <0>         0.0000
     46 H15         1.3362   -4.1106    1.1841 H         1 <0>         0.0000
     47 H16         2.5535   -4.4515    3.1073 H         1 <0>         0.0000
     48 H17         3.2283   -6.6104    3.9404 H         1 <0>         0.0000
     49 H18         3.2850   -3.6286   -2.0152 H         1 <0>         0.0000
     50 H19         3.7697   -2.2435   -1.0182 H         1 <0>         0.0000
     51 H20         2.6102   -2.0207   -2.3426 H         1 <0>         0.0000
     52 H21         6.2005   -5.2008    2.0953 H         1 <0>         0.0000
     53 H22         5.3355   -5.0069    0.5586 H         1 <0>         0.0000
     54 H23         5.7248   -6.6306    1.1587 H         1 <0>         0.0000
     55 H24         3.4984   -8.9472    2.9564 H         1 <0>         0.0000
     56 H25         5.1358   -9.5663    2.6762 H         1 <0>         0.0000
     57 H26         4.4862   -8.2713    1.6553 H         1 <0>         0.0000
     58 H27         6.2743   -9.9919    4.5337 H         1 <0>         0.0000
     59 H28         7.2737   -8.6565    5.0689 H         1 <0>         0.0000
     60 H29         5.2482   -7.3872    5.7883 H         1 <0>         0.0000
     61 H30         4.2124   -8.7226    5.2963 H         1 <0>         0.0000
     62 H31         5.4142  -10.3091    6.8645 H         1 <0>         0.0000
     63 H32         6.4529   -8.9686    7.4141 H         1 <0>         0.0000
     64 H33         6.0978   -7.3661    3.3127 H         1 <0>         0.0000
@<TRIPOS>BOND
     1    1    3 2
     2    1    4 1
     3    2    4 2
     4    2    5 1
     5    3   12 1
     6    4   16 1
     7    5    7 1
     8    5   26 2
     9    6    8 1
    10    6   17 1
    11    6   27 2
    12    7    9 1
    13    8   13 1
    14    9   16 1
    15   10   11 1
    16   10   14 1
    17   11   15 1
    18   12   13 1
    19   12   14 1
    20   13   16 1
    21   14   17 1
    22   15   17 1
    23   15   24 1
    24   16   18 1
    25   17   19 1
    26   20   24 1
    27   21   22 1
    28   21   23 1
    29   22   24 1
    30   23   30 1
    31   25   31 1
    32   28   31 2
    33   29   31 2
    34   30   31 1
    35    1   32 1
    36    2   33 1
    37    3   34 1
    38    7   35 1
    39    7   36 1
    40    8   37 1
    41    8   38 1
    42    9   39 1
    43    9   40 1
    44   10   41 1
    45   10   42 1
    46   11   43 1
    47   11   44 1
    48   12   45 1
    49   13   46 1
    50   14   47 1
    51   15   48 1
    52   18   49 1
    53   18   50 1
    54   18   51 1
    55   19   52 1
    56   19   53 1
    57   19   54 1
    58   20   55 1
    59   20   56 1
    60   20   57 1
    61   21   58 1
    62   21   59 1
    63   22   60 1
    64   22   61 1
    65   23   62 1
    66   23   63 1
    67   24   64 1

@<TRIPOS>MOLECULE
DKPES_CSD_MMMF_1_32
   64    67     0     0     0
SMALL
USER_CHARGES

@<TRIPOS>ATOM
      1 C1          2.0121   -1.2143    1.2319 C.2       1 <0>        -0.1500
      2 C2          0.3162   -0.9298   -0.4630 C.2       1 <0>        -0.1356
      3 C3          2.9245   -1.9459    1.8863 C.2       1 <0>        -0.2882
      4 C4          1.3270   -1.6661    0.0290 C.2       1 <0>        -0.1382
      5 C5         -0.4261   -1.3440   -1.6772 C.2       1 <0>         0.4946
      6 C6          3.0520   -6.2645    1.2605 C.2       1 <0>         0.4480
      7 C7         -0.0521   -2.6371   -2.3563 C.3       1 <0>         0.0610
      8 C8          2.6249   -5.3856    0.0869 C.3       1 <0>         0.0610
      9 C9          0.6099   -3.6118   -1.3906 C.3       1 <0>         0.0000
     10 C10         4.4784   -3.8939    3.7777 C.3       1 <0>         0.0000
     11 C11         4.7891   -5.2227    4.4865 C.3       1 <0>         0.0000
     12 C12         3.3262   -3.3340    1.4645 C.3       1 <0>         0.1382
     13 C13         2.2273   -3.9675    0.5485 C.3       1 <0>         0.0000
     14 C14         3.5426   -4.2948    2.6428 C.3       1 <0>         0.0000
     15 C15         4.2322   -6.3446    3.5783 C.3       1 <0>         0.0000
     16 C16         1.7910   -2.9885   -0.5996 C.3       1 <0>         0.1382
     17 C17         4.0987   -5.6679    2.1953 C.3       1 <0>         0.0610
     18 C18         2.9581   -2.6968   -1.5724 C.3       1 <0>         0.0000
     19 C19         5.4441   -5.6231    1.4437 C.3       1 <0>         0.0000
     20 C20         4.2804   -8.7995    3.0961 C.3       1 <0>         0.0000
     21 C21         6.7528   -8.8904    5.1075 C.3       1 <0>         0.0000
     22 C22         5.5625   -7.9310    5.0711 C.3       1 <0>         0.0000
     23 C23         7.9642   -8.3055    4.3930 C.3       1 <0>         0.2800
     24 C24         5.0782   -7.6104    3.6426 C.3       1 <0>         0.0000
     25 O1         10.0891   -7.9365    6.2752 O.3       1 <0>        -0.8167
     26 O2         -1.3014   -0.6098   -2.1336 O.2       1 <0>        -0.5700
     27 O3          2.6287   -7.4120    1.3872 O.2       1 <0>        -0.5700
     28 O4         11.1690   -9.9626    5.4089 O.2       1 <0>        -0.8167
     29 O5          9.1235  -10.1479    6.7517 O.2       1 <0>        -0.8167
     30 O6          9.0374   -9.2334    4.4739 O.3       1 <0>        -0.4637
     31 S1          9.9285   -9.3260    5.8493 S.o2      1 <0>         1.6337
     32 H1          1.7714   -0.2251    1.6135 H         1 <0>         0.1500
     33 H2          0.0003    0.0002   -0.0001 H         1 <0>         0.1500
     34 H3          3.4155   -1.5047    2.7491 H         1 <0>         0.1500
     35 H4         -0.9660   -3.0949   -2.7512 H         1 <0>         0.0000
     36 H5          0.6022   -2.4064   -3.2029 H         1 <0>         0.0000
     37 H6          3.4445   -5.3628   -0.6369 H         1 <0>         0.0000
     38 H7          1.7735   -5.8804   -0.3920 H         1 <0>         0.0000
     39 H8         -0.1524   -3.9705   -0.6847 H         1 <0>         0.0000
     40 H9          0.9430   -4.4864   -1.9618 H         1 <0>         0.0000
     41 H10         4.0144   -3.1796    4.4653 H         1 <0>         0.0000
     42 H11         5.3994   -3.4390    3.3963 H         1 <0>         0.0000
     43 H12         5.8694   -5.3151    4.6450 H         1 <0>         0.0000
     44 H13         4.3104   -5.2623    5.4714 H         1 <0>         0.0000
     45 H14         4.2678   -3.2271    0.9157 H         1 <0>         0.0000
     46 H15         1.3362   -4.1106    1.1841 H         1 <0>         0.0000
     47 H16         2.5535   -4.4515    3.1073 H         1 <0>         0.0000
     48 H17         3.2283   -6.6104    3.9404 H         1 <0>         0.0000
     49 H18         3.2850   -3.6286   -2.0152 H         1 <0>         0.0000
     50 H19         3.7697   -2.2435   -1.0182 H         1 <0>         0.0000
     51 H20         2.6102   -2.0207   -2.3426 H         1 <0>         0.0000
     52 H21         6.2005   -5.2008    2.0953 H         1 <0>         0.0000
     53 H22         5.3355   -5.0069    0.5586 H         1 <0>         0.0000
     54 H23         5.7248   -6.6306    1.1587 H         1 <0>         0.0000
     55 H24         3.3864   -8.9844    3.7009 H         1 <0>         0.0000
     56 H25         4.8837   -9.7137    3.0936 H         1 <0>         0.0000
     57 H26         3.9524   -8.6071    2.0692 H         1 <0>         0.0000
     58 H27         7.0328   -9.1244    6.1408 H         1 <0>         0.0000
     59 H28         6.4845   -9.8470    4.6422 H         1 <0>         0.0000
     60 H29         5.8507   -6.9957    5.5683 H         1 <0>         0.0000
     61 H30         4.7356   -8.3548    5.6550 H         1 <0>         0.0000
     62 H31         8.2785   -7.3677    4.8620 H         1 <0>         0.0000
     63 H32         7.7438   -8.1201    3.3369 H         1 <0>         0.0000
     64 H33         5.9579   -7.4756    2.9974 H         1 <0>         0.0000
@<TRIPOS>BOND
     1    1    3 2
     2    1    4 1
     3    2    4 2
     4    2    5 1
     5    3   12 1
     6    4   16 1
     7    5    7 1
     8    5   26 2
     9    6    8 1
    10    6   17 1
    11    6   27 2
    12    7    9 1
    13    8   13 1
    14    9   16 1
    15   10   11 1
    16   10   14 1
    17   11   15 1
    18   12   13 1
    19   12   14 1
    20   13   16 1
    21   14   17 1
    22   15   17 1
    23   15   24 1
    24   16   18 1
    25   17   19 1
    26   20   24 1
    27   21   22 1
    28   21   23 1
    29   22   24 1
    30   23   30 1
    31   25   31 1
    32   28   31 2
    33   29   31 2
    34   30   31 1
    35    1   32 1
    36    2   33 1
    37    3   34 1
    38    7   35 1
    39    7   36 1
    40    8   37 1
    41    8   38 1
    42    9   39 1
    43    9   40 1
    44   10   41 1
    45   10   42 1
    46   11   43 1
    47   11   44 1
    48   12   45 1
    49   13   46 1
    50   14   47 1
    51   15   48 1
    52   18   49 1
    53   18   50 1
    54   18   51 1
    55   19   52 1
    56   19   53 1
    57   19   54 1
    58   20   55 1
    59   20   56 1
    60   20   57 1
    61   21   58 1
    62   21   59 1
    63   22   60 1
    64   22   61 1
    65   23   62 1
    66   23   63 1
    67   24   64 1

@<TRIPOS>MOLECULE
DKPES_CSD_MMMF_1_18
   64    67     0     0     0
SMALL
USER_CHARGES

@<TRIPOS>ATOM
      1 C1          2.0121   -1.2143    1.2319 C.2       1 <0>        -0.1500
      2 C2          0.3162   -0.9298   -0.4630 C.2       1 <0>        -0.1356
      3 C3          2.9245   -1.9459    1.8863 C.2       1 <0>        -0.2882
      4 C4          1.3270   -1.6661    0.0290 C.2       1 <0>        -0.1382
      5 C5         -0.4261   -1.3440   -1.6772 C.2       1 <0>         0.4946
      6 C6          3.0520   -6.2645    1.2605 C.2       1 <0>         0.4480
      7 C7         -0.0521   -2.6371   -2.3563 C.3       1 <0>         0.0610
      8 C8          2.6249   -5.3856    0.0869 C.3       1 <0>         0.0610
      9 C9          0.6099   -3.6118   -1.3906 C.3       1 <0>         0.0000
     10 C10         4.4784   -3.8939    3.7777 C.3       1 <0>         0.0000
     11 C11         4.7891   -5.2227    4.4865 C.3       1 <0>         0.0000
     12 C12         3.3262   -3.3340    1.4645 C.3       1 <0>         0.1382
     13 C13         2.2273   -3.9675    0.5485 C.3       1 <0>         0.0000
     14 C14         3.5426   -4.2948    2.6428 C.3       1 <0>         0.0000
     15 C15         4.2322   -6.3446    3.5783 C.3       1 <0>         0.0000
     16 C16         1.7910   -2.9885   -0.5996 C.3       1 <0>         0.1382
     17 C17         4.0987   -5.6679    2.1953 C.3       1 <0>         0.0610
     18 C18         2.9581   -2.6968   -1.5724 C.3       1 <0>         0.0000
     19 C19         5.4441   -5.6231    1.4437 C.3       1 <0>         0.0000
     20 C20         4.5183   -8.6617    2.6779 C.3       1 <0>         0.0000
     21 C21         5.9758   -9.4919    5.1403 C.3       1 <0>         0.0000
     22 C22         5.1520   -8.2058    5.0632 C.3       1 <0>         0.0000
     23 C23         7.4225   -9.2547    4.7271 C.3       1 <0>         0.2800
     24 C24         5.0782   -7.6104    3.6426 C.3       1 <0>         0.0000
     25 O1          9.1591  -10.0217    6.8694 O.3       1 <0>        -0.8167
     26 O2         -1.3014   -0.6098   -2.1336 O.2       1 <0>        -0.5700
     27 O3          2.6287   -7.4120    1.3872 O.2       1 <0>        -0.5700
     28 O4          7.2927   -8.7830    7.8713 O.2       1 <0>        -0.8167
     29 O5          9.4353   -7.6542    7.4762 O.2       1 <0>        -0.8167
     30 O6          7.9926   -8.2799    5.5896 O.3       1 <0>        -0.4637
     31 S1          8.5203   -8.7233    7.0793 S.o2      1 <0>         1.6337
     32 H1          1.7714   -0.2251    1.6135 H         1 <0>         0.1500
     33 H2          0.0003    0.0002   -0.0001 H         1 <0>         0.1500
     34 H3          3.4155   -1.5047    2.7491 H         1 <0>         0.1500
     35 H4         -0.9660   -3.0949   -2.7512 H         1 <0>         0.0000
     36 H5          0.6022   -2.4064   -3.2029 H         1 <0>         0.0000
     37 H6          3.4445   -5.3628   -0.6369 H         1 <0>         0.0000
     38 H7          1.7735   -5.8804   -0.3920 H         1 <0>         0.0000
     39 H8         -0.1524   -3.9705   -0.6847 H         1 <0>         0.0000
     40 H9          0.9430   -4.4864   -1.9618 H         1 <0>         0.0000
     41 H10         4.0144   -3.1796    4.4653 H         1 <0>         0.0000
     42 H11         5.3994   -3.4390    3.3963 H         1 <0>         0.0000
     43 H12         5.8694   -5.3151    4.6450 H         1 <0>         0.0000
     44 H13         4.3104   -5.2623    5.4714 H         1 <0>         0.0000
     45 H14         4.2678   -3.2271    0.9157 H         1 <0>         0.0000
     46 H15         1.3362   -4.1106    1.1841 H         1 <0>         0.0000
     47 H16         2.5535   -4.4515    3.1073 H         1 <0>         0.0000
     48 H17         3.2283   -6.6104    3.9404 H         1 <0>         0.0000
     49 H18         3.2850   -3.6286   -2.0152 H         1 <0>         0.0000
     50 H19         3.7697   -2.2435   -1.0182 H         1 <0>         0.0000
     51 H20         2.6102   -2.0207   -2.3426 H         1 <0>         0.0000
     52 H21         6.2005   -5.2008    2.0953 H         1 <0>         0.0000
     53 H22         5.3355   -5.0069    0.5586 H         1 <0>         0.0000
     54 H23         5.7248   -6.6306    1.1587 H         1 <0>         0.0000
     55 H24         3.4984   -8.9472    2.9564 H         1 <0>         0.0000
     56 H25         5.1358   -9.5663    2.6762 H         1 <0>         0.0000
     57 H26         4.4862   -8.2713    1.6553 H         1 <0>         0.0000
     58 H27         5.9628   -9.9021    6.1564 H         1 <0>         0.0000
     59 H28         5.5368  -10.2638    4.4961 H         1 <0>         0.0000
     60 H29         5.5971   -7.4633    5.7383 H         1 <0>         0.0000
     61 H30         4.1381   -8.4002    5.4353 H         1 <0>         0.0000
     62 H31         7.4787   -8.8849    3.6983 H         1 <0>         0.0000
     63 H32         8.0085  -10.1757    4.8078 H         1 <0>         0.0000
     64 H33         6.0978   -7.3661    3.3127 H         1 <0>         0.0000
@<TRIPOS>BOND
     1    1    3 2
     2    1    4 1
     3    2    4 2
     4    2    5 1
     5    3   12 1
     6    4   16 1
     7    5    7 1
     8    5   26 2
     9    6    8 1
    10    6   17 1
    11    6   27 2
    12    7    9 1
    13    8   13 1
    14    9   16 1
    15   10   11 1
    16   10   14 1
    17   11   15 1
    18   12   13 1
    19   12   14 1
    20   13   16 1
    21   14   17 1
    22   15   17 1
    23   15   24 1
    24   16   18 1
    25   17   19 1
    26   20   24 1
    27   21   22 1
    28   21   23 1
    29   22   24 1
    30   23   30 1
    31   25   31 1
    32   28   31 2
    33   29   31 2
    34   30   31 1
    35    1   32 1
    36    2   33 1
    37    3   34 1
    38    7   35 1
    39    7   36 1
    40    8   37 1
    41    8   38 1
    42    9   39 1
    43    9   40 1
    44   10   41 1
    45   10   42 1
    46   11   43 1
    47   11   44 1
    48   12   45 1
    49   13   46 1
    50   14   47 1
    51   15   48 1
    52   18   49 1
    53   18   50 1
    54   18   51 1
    55   19   52 1
    56   19   53 1
    57   19   54 1
    58   20   55 1
    59   20   56 1
    60   20   57 1
    61   21   58 1
    62   21   59 1
    63   22   60 1
    64   22   61 1
    65   23   62 1
    66   23   63 1
    67   24   64 1

@<TRIPOS>MOLECULE
DKPES_CSD_MMMF_1_16
   64    67     0     0     0
SMALL
USER_CHARGES

@<TRIPOS>ATOM
      1 C1          2.0121   -1.2143    1.2319 C.2       1 <0>        -0.1500
      2 C2          0.3162   -0.9298   -0.4630 C.2       1 <0>        -0.1356
      3 C3          2.9245   -1.9459    1.8863 C.2       1 <0>        -0.2882
      4 C4          1.3270   -1.6661    0.0290 C.2       1 <0>        -0.1382
      5 C5         -0.4261   -1.3440   -1.6772 C.2       1 <0>         0.4946
      6 C6          3.0520   -6.2645    1.2605 C.2       1 <0>         0.4480
      7 C7         -0.0521   -2.6371   -2.3563 C.3       1 <0>         0.0610
      8 C8          2.6249   -5.3856    0.0869 C.3       1 <0>         0.0610
      9 C9          0.6099   -3.6118   -1.3906 C.3       1 <0>         0.0000
     10 C10         4.4784   -3.8939    3.7777 C.3       1 <0>         0.0000
     11 C11         4.7891   -5.2227    4.4865 C.3       1 <0>         0.0000
     12 C12         3.3262   -3.3340    1.4645 C.3       1 <0>         0.1382
     13 C13         2.2273   -3.9675    0.5485 C.3       1 <0>         0.0000
     14 C14         3.5426   -4.2948    2.6428 C.3       1 <0>         0.0000
     15 C15         4.2322   -6.3446    3.5783 C.3       1 <0>         0.0000
     16 C16         1.7910   -2.9885   -0.5996 C.3       1 <0>         0.1382
     17 C17         4.0987   -5.6679    2.1953 C.3       1 <0>         0.0610
     18 C18         2.9581   -2.6968   -1.5724 C.3       1 <0>         0.0000
     19 C19         5.4441   -5.6231    1.4437 C.3       1 <0>         0.0000
     20 C20         4.2804   -8.7995    3.0961 C.3       1 <0>         0.0000
     21 C21         6.3911   -9.2134    5.1576 C.3       1 <0>         0.0000
     22 C22         5.5625   -7.9310    5.0711 C.3       1 <0>         0.0000
     23 C23         6.8204   -9.5060    6.5895 C.3       1 <0>         0.2800
     24 C24         5.0782   -7.6104    3.6426 C.3       1 <0>         0.0000
     25 O1          7.8222  -10.5805    9.0462 O.3       1 <0>        -0.8167
     26 O2         -1.3014   -0.6098   -2.1336 O.2       1 <0>        -0.5700
     27 O3          2.6287   -7.4120    1.3872 O.2       1 <0>        -0.5700
     28 O4          9.7567  -10.2332    7.5769 O.2       1 <0>        -0.8167
     29 O5          8.7867  -12.4752    7.8095 O.2       1 <0>        -0.8167
     30 O6          7.5708  -10.7125    6.6066 O.3       1 <0>        -0.4637
     31 S1          8.5672  -11.0309    7.8715 S.o2      1 <0>         1.6337
     32 H1          1.7714   -0.2251    1.6135 H         1 <0>         0.1500
     33 H2          0.0003    0.0002   -0.0001 H         1 <0>         0.1500
     34 H3          3.4155   -1.5047    2.7491 H         1 <0>         0.1500
     35 H4         -0.9660   -3.0949   -2.7512 H         1 <0>         0.0000
     36 H5          0.6022   -2.4064   -3.2029 H         1 <0>         0.0000
     37 H6          3.4445   -5.3628   -0.6369 H         1 <0>         0.0000
     38 H7          1.7735   -5.8804   -0.3920 H         1 <0>         0.0000
     39 H8         -0.1524   -3.9705   -0.6847 H         1 <0>         0.0000
     40 H9          0.9430   -4.4864   -1.9618 H         1 <0>         0.0000
     41 H10         4.0144   -3.1796    4.4653 H         1 <0>         0.0000
     42 H11         5.3994   -3.4390    3.3963 H         1 <0>         0.0000
     43 H12         5.8694   -5.3151    4.6450 H         1 <0>         0.0000
     44 H13         4.3104   -5.2623    5.4714 H         1 <0>         0.0000
     45 H14         4.2678   -3.2271    0.9157 H         1 <0>         0.0000
     46 H15         1.3362   -4.1106    1.1841 H         1 <0>         0.0000
     47 H16         2.5535   -4.4515    3.1073 H         1 <0>         0.0000
     48 H17         3.2283   -6.6104    3.9404 H         1 <0>         0.0000
     49 H18         3.2850   -3.6286   -2.0152 H         1 <0>         0.0000
     50 H19         3.7697   -2.2435   -1.0182 H         1 <0>         0.0000
     51 H20         2.6102   -2.0207   -2.3426 H         1 <0>         0.0000
     52 H21         6.2005   -5.2008    2.0953 H         1 <0>         0.0000
     53 H22         5.3355   -5.0069    0.5586 H         1 <0>         0.0000
     54 H23         5.7248   -6.6306    1.1587 H         1 <0>         0.0000
     55 H24         3.3864   -8.9844    3.7009 H         1 <0>         0.0000
     56 H25         4.8837   -9.7137    3.0936 H         1 <0>         0.0000
     57 H26         3.9524   -8.6071    2.0692 H         1 <0>         0.0000
     58 H27         5.8230  -10.0703    4.7785 H         1 <0>         0.0000
     59 H28         7.2813   -9.1345    4.5214 H         1 <0>         0.0000
     60 H29         6.1718   -7.0944    5.4372 H         1 <0>         0.0000
     61 H30         4.6997   -8.0091    5.7448 H         1 <0>         0.0000
     62 H31         5.9490   -9.6285    7.2406 H         1 <0>         0.0000
     63 H32         7.4487   -8.7002    6.9821 H         1 <0>         0.0000
     64 H33         5.9579   -7.4756    2.9974 H         1 <0>         0.0000
@<TRIPOS>BOND
     1    1    3 2
     2    1    4 1
     3    2    4 2
     4    2    5 1
     5    3   12 1
     6    4   16 1
     7    5    7 1
     8    5   26 2
     9    6    8 1
    10    6   17 1
    11    6   27 2
    12    7    9 1
    13    8   13 1
    14    9   16 1
    15   10   11 1
    16   10   14 1
    17   11   15 1
    18   12   13 1
    19   12   14 1
    20   13   16 1
    21   14   17 1
    22   15   17 1
    23   15   24 1
    24   16   18 1
    25   17   19 1
    26   20   24 1
    27   21   22 1
    28   21   23 1
    29   22   24 1
    30   23   30 1
    31   25   31 1
    32   28   31 2
    33   29   31 2
    34   30   31 1
    35    1   32 1
    36    2   33 1
    37    3   34 1
    38    7   35 1
    39    7   36 1
    40    8   37 1
    41    8   38 1
    42    9   39 1
    43    9   40 1
    44   10   41 1
    45   10   42 1
    46   11   43 1
    47   11   44 1
    48   12   45 1
    49   13   46 1
    50   14   47 1
    51   15   48 1
    52   18   49 1
    53   18   50 1
    54   18   51 1
    55   19   52 1
    56   19   53 1
    57   19   54 1
    58   20   55 1
    59   20   56 1
    60   20   57 1
    61   21   58 1
    62   21   59 1
    63   22   60 1
    64   22   61 1
    65   23   62 1
    66   23   63 1
    67   24   64 1

@<TRIPOS>MOLECULE
DKPES_CSD_MMMF_1_12
   64    67     0     0     0
SMALL
USER_CHARGES

@<TRIPOS>ATOM
      1 C1          2.0121   -1.2143    1.2319 C.2       1 <0>        -0.1500
      2 C2          0.3162   -0.9298   -0.4630 C.2       1 <0>        -0.1356
      3 C3          2.9245   -1.9459    1.8863 C.2       1 <0>        -0.2882
      4 C4          1.3270   -1.6661    0.0290 C.2       1 <0>        -0.1382
      5 C5         -0.4261   -1.3440   -1.6772 C.2       1 <0>         0.4946
      6 C6          3.0520   -6.2645    1.2605 C.2       1 <0>         0.4480
      7 C7         -0.0521   -2.6371   -2.3563 C.3       1 <0>         0.0610
      8 C8          2.6249   -5.3856    0.0869 C.3       1 <0>         0.0610
      9 C9          0.6099   -3.6118   -1.3906 C.3       1 <0>         0.0000
     10 C10         4.4784   -3.8939    3.7777 C.3       1 <0>         0.0000
     11 C11         4.7891   -5.2227    4.4865 C.3       1 <0>         0.0000
     12 C12         3.3262   -3.3340    1.4645 C.3       1 <0>         0.1382
     13 C13         2.2273   -3.9675    0.5485 C.3       1 <0>         0.0000
     14 C14         3.5426   -4.2948    2.6428 C.3       1 <0>         0.0000
     15 C15         4.2322   -6.3446    3.5783 C.3       1 <0>         0.0000
     16 C16         1.7910   -2.9885   -0.5996 C.3       1 <0>         0.1382
     17 C17         4.0987   -5.6679    2.1953 C.3       1 <0>         0.0610
     18 C18         2.9581   -2.6968   -1.5724 C.3       1 <0>         0.0000
     19 C19         5.4441   -5.6231    1.4437 C.3       1 <0>         0.0000
     20 C20         4.5183   -8.6617    2.6779 C.3       1 <0>         0.0000
     21 C21         5.5328   -9.6867    5.0816 C.3       1 <0>         0.0000
     22 C22         5.1520   -8.2058    5.0632 C.3       1 <0>         0.0000
     23 C23         5.5627  -10.2385    6.5010 C.3       1 <0>         0.2800
     24 C24         5.0782   -7.6104    3.6426 C.3       1 <0>         0.0000
     25 O1          6.7188  -11.3634    8.8658 O.3       1 <0>        -0.8167
     26 O2         -1.3014   -0.6098   -2.1336 O.2       1 <0>        -0.5700
     27 O3          2.6287   -7.4120    1.3872 O.2       1 <0>        -0.5700
     28 O4          5.6784   -9.2395    9.5200 O.2       1 <0>        -0.8167
     29 O5          8.0996   -9.3460    9.1351 O.2       1 <0>        -0.8167
     30 O6          6.5320   -9.5209    7.2525 O.3       1 <0>        -0.4637
     31 S1          6.7829   -9.9032    8.8290 S.o2      1 <0>         1.6337
     32 H1          1.7714   -0.2251    1.6135 H         1 <0>         0.1500
     33 H2          0.0003    0.0002   -0.0001 H         1 <0>         0.1500
     34 H3          3.4155   -1.5047    2.7491 H         1 <0>         0.1500
     35 H4         -0.9660   -3.0949   -2.7512 H         1 <0>         0.0000
     36 H5          0.6022   -2.4064   -3.2029 H         1 <0>         0.0000
     37 H6          3.4445   -5.3628   -0.6369 H         1 <0>         0.0000
     38 H7          1.7735   -5.8804   -0.3920 H         1 <0>         0.0000
     39 H8         -0.1524   -3.9705   -0.6847 H         1 <0>         0.0000
     40 H9          0.9430   -4.4864   -1.9618 H         1 <0>         0.0000
     41 H10         4.0144   -3.1796    4.4653 H         1 <0>         0.0000
     42 H11         5.3994   -3.4390    3.3963 H         1 <0>         0.0000
     43 H12         5.8694   -5.3151    4.6450 H         1 <0>         0.0000
     44 H13         4.3104   -5.2623    5.4714 H         1 <0>         0.0000
     45 H14         4.2678   -3.2271    0.9157 H         1 <0>         0.0000
     46 H15         1.3362   -4.1106    1.1841 H         1 <0>         0.0000
     47 H16         2.5535   -4.4515    3.1073 H         1 <0>         0.0000
     48 H17         3.2283   -6.6104    3.9404 H         1 <0>         0.0000
     49 H18         3.2850   -3.6286   -2.0152 H         1 <0>         0.0000
     50 H19         3.7697   -2.2435   -1.0182 H         1 <0>         0.0000
     51 H20         2.6102   -2.0207   -2.3426 H         1 <0>         0.0000
     52 H21         6.2005   -5.2008    2.0953 H         1 <0>         0.0000
     53 H22         5.3355   -5.0069    0.5586 H         1 <0>         0.0000
     54 H23         5.7248   -6.6306    1.1587 H         1 <0>         0.0000
     55 H24         3.4984   -8.9472    2.9564 H         1 <0>         0.0000
     56 H25         5.1358   -9.5663    2.6762 H         1 <0>         0.0000
     57 H26         4.4862   -8.2713    1.6553 H         1 <0>         0.0000
     58 H27         4.8255  -10.2780    4.4891 H         1 <0>         0.0000
     59 H28         6.5150   -9.8326    4.6154 H         1 <0>         0.0000
     60 H29         5.8943   -7.6456    5.6465 H         1 <0>         0.0000
     61 H30         4.1882   -8.0715    5.5705 H         1 <0>         0.0000
     62 H31         5.8362  -11.2985    6.5019 H         1 <0>         0.0000
     63 H32         4.5890  -10.1209    6.9872 H         1 <0>         0.0000
     64 H33         6.0978   -7.3661    3.3127 H         1 <0>         0.0000
@<TRIPOS>BOND
     1    1    3 2
     2    1    4 1
     3    2    4 2
     4    2    5 1
     5    3   12 1
     6    4   16 1
     7    5    7 1
     8    5   26 2
     9    6    8 1
    10    6   17 1
    11    6   27 2
    12    7    9 1
    13    8   13 1
    14    9   16 1
    15   10   11 1
    16   10   14 1
    17   11   15 1
    18   12   13 1
    19   12   14 1
    20   13   16 1
    21   14   17 1
    22   15   17 1
    23   15   24 1
    24   16   18 1
    25   17   19 1
    26   20   24 1
    27   21   22 1
    28   21   23 1
    29   22   24 1
    30   23   30 1
    31   25   31 1
    32   28   31 2
    33   29   31 2
    34   30   31 1
    35    1   32 1
    36    2   33 1
    37    3   34 1
    38    7   35 1
    39    7   36 1
    40    8   37 1
    41    8   38 1
    42    9   39 1
    43    9   40 1
    44   10   41 1
    45   10   42 1
    46   11   43 1
    47   11   44 1
    48   12   45 1
    49   13   46 1
    50   14   47 1
    51   15   48 1
    52   18   49 1
    53   18   50 1
    54   18   51 1
    55   19   52 1
    56   19   53 1
    57   19   54 1
    58   20   55 1
    59   20   56 1
    60   20   57 1
    61   21   58 1
    62   21   59 1
    63   22   60 1
    64   22   61 1
    65   23   62 1
    66   23   63 1
    67   24   64 1

@<TRIPOS>MOLECULE
DKPES_CSD_MMMF_1_15
   64    67     0     0     0
SMALL
USER_CHARGES

@<TRIPOS>ATOM
      1 C1          2.0121   -1.2143    1.2319 C.2       1 <0>        -0.1500
      2 C2          0.3162   -0.9298   -0.4630 C.2       1 <0>        -0.1356
      3 C3          2.9245   -1.9459    1.8863 C.2       1 <0>        -0.2882
      4 C4          1.3270   -1.6661    0.0290 C.2       1 <0>        -0.1382
      5 C5         -0.4261   -1.3440   -1.6772 C.2       1 <0>         0.4946
      6 C6          3.0520   -6.2645    1.2605 C.2       1 <0>         0.4480
      7 C7         -0.0521   -2.6371   -2.3563 C.3       1 <0>         0.0610
      8 C8          2.6249   -5.3856    0.0869 C.3       1 <0>         0.0610
      9 C9          0.6099   -3.6118   -1.3906 C.3       1 <0>         0.0000
     10 C10         4.4784   -3.8939    3.7777 C.3       1 <0>         0.0000
     11 C11         4.7891   -5.2227    4.4865 C.3       1 <0>         0.0000
     12 C12         3.3262   -3.3340    1.4645 C.3       1 <0>         0.1382
     13 C13         2.2273   -3.9675    0.5485 C.3       1 <0>         0.0000
     14 C14         3.5426   -4.2948    2.6428 C.3       1 <0>         0.0000
     15 C15         4.2322   -6.3446    3.5783 C.3       1 <0>         0.0000
     16 C16         1.7910   -2.9885   -0.5996 C.3       1 <0>         0.1382
     17 C17         4.0987   -5.6679    2.1953 C.3       1 <0>         0.0610
     18 C18         2.9581   -2.6968   -1.5724 C.3       1 <0>         0.0000
     19 C19         5.4441   -5.6231    1.4437 C.3       1 <0>         0.0000
     20 C20         4.6826   -8.4407    4.8686 C.3       1 <0>         0.0000
     21 C21         7.4569   -8.5116    3.2985 C.3       1 <0>         0.0000
     22 C22         6.5907   -7.3138    3.6905 C.3       1 <0>         0.0000
     23 C23         8.9411   -8.1821    3.3905 C.3       1 <0>         0.2800
     24 C24         5.0782   -7.6104    3.6426 C.3       1 <0>         0.0000
     25 O1         10.7194   -7.0597    6.5444 O.3       1 <0>        -0.8167
     26 O2         -1.3014   -0.6098   -2.1336 O.2       1 <0>        -0.5700
     27 O3          2.6287   -7.4120    1.3872 O.2       1 <0>        -0.5700
     28 O4         11.0607   -6.2402    4.2568 O.2       1 <0>        -0.8167
     29 O5         11.5738   -8.5760    4.8066 O.2       1 <0>        -0.8167
     30 O6          9.2450   -7.8001    4.7250 O.3       1 <0>        -0.4637
     31 S1         10.7834   -7.3867    5.1208 S.o2      1 <0>         1.6337
     32 H1          1.7714   -0.2251    1.6135 H         1 <0>         0.1500
     33 H2          0.0003    0.0002   -0.0001 H         1 <0>         0.1500
     34 H3          3.4155   -1.5047    2.7491 H         1 <0>         0.1500
     35 H4         -0.9660   -3.0949   -2.7512 H         1 <0>         0.0000
     36 H5          0.6022   -2.4064   -3.2029 H         1 <0>         0.0000
     37 H6          3.4445   -5.3628   -0.6369 H         1 <0>         0.0000
     38 H7          1.7735   -5.8804   -0.3920 H         1 <0>         0.0000
     39 H8         -0.1524   -3.9705   -0.6847 H         1 <0>         0.0000
     40 H9          0.9430   -4.4864   -1.9618 H         1 <0>         0.0000
     41 H10         4.0144   -3.1796    4.4653 H         1 <0>         0.0000
     42 H11         5.3994   -3.4390    3.3963 H         1 <0>         0.0000
     43 H12         5.8694   -5.3151    4.6450 H         1 <0>         0.0000
     44 H13         4.3104   -5.2623    5.4714 H         1 <0>         0.0000
     45 H14         4.2678   -3.2271    0.9157 H         1 <0>         0.0000
     46 H15         1.3362   -4.1106    1.1841 H         1 <0>         0.0000
     47 H16         2.5535   -4.4515    3.1073 H         1 <0>         0.0000
     48 H17         3.2283   -6.6104    3.9404 H         1 <0>         0.0000
     49 H18         3.2850   -3.6286   -2.0152 H         1 <0>         0.0000
     50 H19         3.7697   -2.2435   -1.0182 H         1 <0>         0.0000
     51 H20         2.6102   -2.0207   -2.3426 H         1 <0>         0.0000
     52 H21         6.2005   -5.2008    2.0953 H         1 <0>         0.0000
     53 H22         5.3355   -5.0069    0.5586 H         1 <0>         0.0000
     54 H23         5.7248   -6.6306    1.1587 H         1 <0>         0.0000
     55 H24         4.8689   -7.8872    5.7950 H         1 <0>         0.0000
     56 H25         5.2494   -9.3769    4.9126 H         1 <0>         0.0000
     57 H26         3.6169   -8.6907    4.8400 H         1 <0>         0.0000
     58 H27         7.2468   -9.3719    3.9440 H         1 <0>         0.0000
     59 H28         7.2199   -8.8342    2.2771 H         1 <0>         0.0000
     60 H29         6.8129   -6.4825    3.0088 H         1 <0>         0.0000
     61 H30         6.8694   -6.9772    4.6971 H         1 <0>         0.0000
     62 H31         9.1987   -7.3530    2.7237 H         1 <0>         0.0000
     63 H32         9.5521   -9.0523    3.1303 H         1 <0>         0.0000
     64 H33         4.8690   -8.2160    2.7494 H         1 <0>         0.0000
@<TRIPOS>BOND
     1    1    3 2
     2    1    4 1
     3    2    4 2
     4    2    5 1
     5    3   12 1
     6    4   16 1
     7    5    7 1
     8    5   26 2
     9    6    8 1
    10    6   17 1
    11    6   27 2
    12    7    9 1
    13    8   13 1
    14    9   16 1
    15   10   11 1
    16   10   14 1
    17   11   15 1
    18   12   13 1
    19   12   14 1
    20   13   16 1
    21   14   17 1
    22   15   17 1
    23   15   24 1
    24   16   18 1
    25   17   19 1
    26   20   24 1
    27   21   22 1
    28   21   23 1
    29   22   24 1
    30   23   30 1
    31   25   31 1
    32   28   31 2
    33   29   31 2
    34   30   31 1
    35    1   32 1
    36    2   33 1
    37    3   34 1
    38    7   35 1
    39    7   36 1
    40    8   37 1
    41    8   38 1
    42    9   39 1
    43    9   40 1
    44   10   41 1
    45   10   42 1
    46   11   43 1
    47   11   44 1
    48   12   45 1
    49   13   46 1
    50   14   47 1
    51   15   48 1
    52   18   49 1
    53   18   50 1
    54   18   51 1
    55   19   52 1
    56   19   53 1
    57   19   54 1
    58   20   55 1
    59   20   56 1
    60   20   57 1
    61   21   58 1
    62   21   59 1
    63   22   60 1
    64   22   61 1
    65   23   62 1
    66   23   63 1
    67   24   64 1

@<TRIPOS>MOLECULE
DKPES_CSD_MMMF_1_4
   64    67     0     0     0
SMALL
USER_CHARGES

@<TRIPOS>ATOM
      1 C1          2.0121   -1.2143    1.2319 C.2       1 <0>        -0.1500
      2 C2          0.3162   -0.9298   -0.4630 C.2       1 <0>        -0.1356
      3 C3          2.9245   -1.9459    1.8863 C.2       1 <0>        -0.2882
      4 C4          1.3270   -1.6661    0.0290 C.2       1 <0>        -0.1382
      5 C5         -0.4261   -1.3440   -1.6772 C.2       1 <0>         0.4946
      6 C6          3.0520   -6.2645    1.2605 C.2       1 <0>         0.4480
      7 C7         -0.0521   -2.6371   -2.3563 C.3       1 <0>         0.0610
      8 C8          2.6249   -5.3856    0.0869 C.3       1 <0>         0.0610
      9 C9          0.6099   -3.6118   -1.3906 C.3       1 <0>         0.0000
     10 C10         4.4784   -3.8939    3.7777 C.3       1 <0>         0.0000
     11 C11         4.7891   -5.2227    4.4865 C.3       1 <0>         0.0000
     12 C12         3.3262   -3.3340    1.4645 C.3       1 <0>         0.1382
     13 C13         2.2273   -3.9675    0.5485 C.3       1 <0>         0.0000
     14 C14         3.5426   -4.2948    2.6428 C.3       1 <0>         0.0000
     15 C15         4.2322   -6.3446    3.5783 C.3       1 <0>         0.0000
     16 C16         1.7910   -2.9885   -0.5996 C.3       1 <0>         0.1382
     17 C17         4.0987   -5.6679    2.1953 C.3       1 <0>         0.0610
     18 C18         2.9581   -2.6968   -1.5724 C.3       1 <0>         0.0000
     19 C19         5.4441   -5.6231    1.4437 C.3       1 <0>         0.0000
     20 C20         4.5183   -8.6617    2.6779 C.3       1 <0>         0.0000
     21 C21         5.9758   -9.4919    5.1403 C.3       1 <0>         0.0000
     22 C22         5.1520   -8.2058    5.0632 C.3       1 <0>         0.0000
     23 C23         7.4225   -9.2547    4.7271 C.3       1 <0>         0.2800
     24 C24         5.0782   -7.6104    3.6426 C.3       1 <0>         0.0000
     25 O1         10.1240  -11.9134    4.6745 O.3       1 <0>        -0.8167
     26 O2         -1.3014   -0.6098   -2.1336 O.2       1 <0>        -0.5700
     27 O3          2.6287   -7.4120    1.3872 O.2       1 <0>        -0.5700
     28 O4         10.3345   -9.5738    5.3843 O.2       1 <0>        -0.8167
     29 O5          9.7833  -10.0973    3.0512 O.2       1 <0>        -0.8167
     30 O6          8.1372  -10.4782    4.8338 O.3       1 <0>        -0.4637
     31 S1          9.7323  -10.5228    4.4491 S.o2      1 <0>         1.6337
     32 H1          1.7714   -0.2251    1.6135 H         1 <0>         0.1500
     33 H2          0.0003    0.0002   -0.0001 H         1 <0>         0.1500
     34 H3          3.4155   -1.5047    2.7491 H         1 <0>         0.1500
     35 H4         -0.9660   -3.0949   -2.7512 H         1 <0>         0.0000
     36 H5          0.6022   -2.4064   -3.2029 H         1 <0>         0.0000
     37 H6          3.4445   -5.3628   -0.6369 H         1 <0>         0.0000
     38 H7          1.7735   -5.8804   -0.3920 H         1 <0>         0.0000
     39 H8         -0.1524   -3.9705   -0.6847 H         1 <0>         0.0000
     40 H9          0.9430   -4.4864   -1.9618 H         1 <0>         0.0000
     41 H10         4.0144   -3.1796    4.4653 H         1 <0>         0.0000
     42 H11         5.3994   -3.4390    3.3963 H         1 <0>         0.0000
     43 H12         5.8694   -5.3151    4.6450 H         1 <0>         0.0000
     44 H13         4.3104   -5.2623    5.4714 H         1 <0>         0.0000
     45 H14         4.2678   -3.2271    0.9157 H         1 <0>         0.0000
     46 H15         1.3362   -4.1106    1.1841 H         1 <0>         0.0000
     47 H16         2.5535   -4.4515    3.1073 H         1 <0>         0.0000
     48 H17         3.2283   -6.6104    3.9404 H         1 <0>         0.0000
     49 H18         3.2850   -3.6286   -2.0152 H         1 <0>         0.0000
     50 H19         3.7697   -2.2435   -1.0182 H         1 <0>         0.0000
     51 H20         2.6102   -2.0207   -2.3426 H         1 <0>         0.0000
     52 H21         6.2005   -5.2008    2.0953 H         1 <0>         0.0000
     53 H22         5.3355   -5.0069    0.5586 H         1 <0>         0.0000
     54 H23         5.7248   -6.6306    1.1587 H         1 <0>         0.0000
     55 H24         3.4984   -8.9472    2.9564 H         1 <0>         0.0000
     56 H25         5.1358   -9.5663    2.6762 H         1 <0>         0.0000
     57 H26         4.4862   -8.2713    1.6553 H         1 <0>         0.0000
     58 H27         5.9628   -9.9021    6.1564 H         1 <0>         0.0000
     59 H28         5.5368  -10.2638    4.4961 H         1 <0>         0.0000
     60 H29         5.5971   -7.4633    5.7383 H         1 <0>         0.0000
     61 H30         4.1381   -8.4002    5.4353 H         1 <0>         0.0000
     62 H31         7.8983   -8.5154    5.3792 H         1 <0>         0.0000
     63 H32         7.4815   -8.9069    3.6908 H         1 <0>         0.0000
     64 H33         6.0978   -7.3661    3.3127 H         1 <0>         0.0000
@<TRIPOS>BOND
     1    1    3 2
     2    1    4 1
     3    2    4 2
     4    2    5 1
     5    3   12 1
     6    4   16 1
     7    5    7 1
     8    5   26 2
     9    6    8 1
    10    6   17 1
    11    6   27 2
    12    7    9 1
    13    8   13 1
    14    9   16 1
    15   10   11 1
    16   10   14 1
    17   11   15 1
    18   12   13 1
    19   12   14 1
    20   13   16 1
    21   14   17 1
    22   15   17 1
    23   15   24 1
    24   16   18 1
    25   17   19 1
    26   20   24 1
    27   21   22 1
    28   21   23 1
    29   22   24 1
    30   23   30 1
    31   25   31 1
    32   28   31 2
    33   29   31 2
    34   30   31 1
    35    1   32 1
    36    2   33 1
    37    3   34 1
    38    7   35 1
    39    7   36 1
    40    8   37 1
    41    8   38 1
    42    9   39 1
    43    9   40 1
    44   10   41 1
    45   10   42 1
    46   11   43 1
    47   11   44 1
    48   12   45 1
    49   13   46 1
    50   14   47 1
    51   15   48 1
    52   18   49 1
    53   18   50 1
    54   18   51 1
    55   19   52 1
    56   19   53 1
    57   19   54 1
    58   20   55 1
    59   20   56 1
    60   20   57 1
    61   21   58 1
    62   21   59 1
    63   22   60 1
    64   22   61 1
    65   23   62 1
    66   23   63 1
    67   24   64 1

@<TRIPOS>MOLECULE
DKPES_CSD_MMMF_1_24
   64    67     0     0     0
SMALL
USER_CHARGES

@<TRIPOS>ATOM
      1 C1          2.0121   -1.2143    1.2319 C.2       1 <0>        -0.1500
      2 C2          0.3162   -0.9298   -0.4630 C.2       1 <0>        -0.1356
      3 C3          2.9245   -1.9459    1.8863 C.2       1 <0>        -0.2882
      4 C4          1.3270   -1.6661    0.0290 C.2       1 <0>        -0.1382
      5 C5         -0.4261   -1.3440   -1.6772 C.2       1 <0>         0.4946
      6 C6          3.0520   -6.2645    1.2605 C.2       1 <0>         0.4480
      7 C7         -0.0521   -2.6371   -2.3563 C.3       1 <0>         0.0610
      8 C8          2.6249   -5.3856    0.0869 C.3       1 <0>         0.0610
      9 C9          0.6099   -3.6118   -1.3906 C.3       1 <0>         0.0000
     10 C10         4.4784   -3.8939    3.7777 C.3       1 <0>         0.0000
     11 C11         4.7891   -5.2227    4.4865 C.3       1 <0>         0.0000
     12 C12         3.3262   -3.3340    1.4645 C.3       1 <0>         0.1382
     13 C13         2.2273   -3.9675    0.5485 C.3       1 <0>         0.0000
     14 C14         3.5426   -4.2948    2.6428 C.3       1 <0>         0.0000
     15 C15         4.2322   -6.3446    3.5783 C.3       1 <0>         0.0000
     16 C16         1.7910   -2.9885   -0.5996 C.3       1 <0>         0.1382
     17 C17         4.0987   -5.6679    2.1953 C.3       1 <0>         0.0610
     18 C18         2.9581   -2.6968   -1.5724 C.3       1 <0>         0.0000
     19 C19         5.4441   -5.6231    1.4437 C.3       1 <0>         0.0000
     20 C20         4.5183   -8.6617    2.6779 C.3       1 <0>         0.0000
     21 C21         6.1805   -7.5138    5.9587 C.3       1 <0>         0.0000
     22 C22         5.1520   -8.2058    5.0632 C.3       1 <0>         0.0000
     23 C23         6.2405   -8.1544    7.3393 C.3       1 <0>         0.2800
     24 C24         5.0782   -7.6104    3.6426 C.3       1 <0>         0.0000
     25 O1          7.0922  -11.7875    8.0064 O.3       1 <0>        -0.8167
     26 O2         -1.3014   -0.6098   -2.1336 O.2       1 <0>        -0.5700
     27 O3          2.6287   -7.4120    1.3872 O.2       1 <0>        -0.5700
     28 O4          5.3964  -10.4133    9.1278 O.2       1 <0>        -0.8167
     29 O5          7.7708   -9.8269    9.3274 O.2       1 <0>        -0.8167
     30 O6          6.5899   -9.5242    7.1953 O.3       1 <0>        -0.4637
     31 S1          6.7290  -10.4711    8.5289 S.o2      1 <0>         1.6337
     32 H1          1.7714   -0.2251    1.6135 H         1 <0>         0.1500
     33 H2          0.0003    0.0002   -0.0001 H         1 <0>         0.1500
     34 H3          3.4155   -1.5047    2.7491 H         1 <0>         0.1500
     35 H4         -0.9660   -3.0949   -2.7512 H         1 <0>         0.0000
     36 H5          0.6022   -2.4064   -3.2029 H         1 <0>         0.0000
     37 H6          3.4445   -5.3628   -0.6369 H         1 <0>         0.0000
     38 H7          1.7735   -5.8804   -0.3920 H         1 <0>         0.0000
     39 H8         -0.1524   -3.9705   -0.6847 H         1 <0>         0.0000
     40 H9          0.9430   -4.4864   -1.9618 H         1 <0>         0.0000
     41 H10         4.0144   -3.1796    4.4653 H         1 <0>         0.0000
     42 H11         5.3994   -3.4390    3.3963 H         1 <0>         0.0000
     43 H12         5.8694   -5.3151    4.6450 H         1 <0>         0.0000
     44 H13         4.3104   -5.2623    5.4714 H         1 <0>         0.0000
     45 H14         4.2678   -3.2271    0.9157 H         1 <0>         0.0000
     46 H15         1.3362   -4.1106    1.1841 H         1 <0>         0.0000
     47 H16         2.5535   -4.4515    3.1073 H         1 <0>         0.0000
     48 H17         3.2283   -6.6104    3.9404 H         1 <0>         0.0000
     49 H18         3.2850   -3.6286   -2.0152 H         1 <0>         0.0000
     50 H19         3.7697   -2.2435   -1.0182 H         1 <0>         0.0000
     51 H20         2.6102   -2.0207   -2.3426 H         1 <0>         0.0000
     52 H21         6.2005   -5.2008    2.0953 H         1 <0>         0.0000
     53 H22         5.3355   -5.0069    0.5586 H         1 <0>         0.0000
     54 H23         5.7248   -6.6306    1.1587 H         1 <0>         0.0000
     55 H24         3.4984   -8.9472    2.9564 H         1 <0>         0.0000
     56 H25         5.1358   -9.5663    2.6762 H         1 <0>         0.0000
     57 H26         4.4862   -8.2713    1.6553 H         1 <0>         0.0000
     58 H27         7.1787   -7.5543    5.5083 H         1 <0>         0.0000
     59 H28         5.9383   -6.4490    6.0634 H         1 <0>         0.0000
     60 H29         4.1645   -8.1244    5.5357 H         1 <0>         0.0000
     61 H30         5.3837   -9.2768    5.0032 H         1 <0>         0.0000
     62 H31         5.2690   -8.0935    7.8401 H         1 <0>         0.0000
     63 H32         6.9954   -7.6670    7.9644 H         1 <0>         0.0000
     64 H33         6.0978   -7.3661    3.3127 H         1 <0>         0.0000
@<TRIPOS>BOND
     1    1    3 2
     2    1    4 1
     3    2    4 2
     4    2    5 1
     5    3   12 1
     6    4   16 1
     7    5    7 1
     8    5   26 2
     9    6    8 1
    10    6   17 1
    11    6   27 2
    12    7    9 1
    13    8   13 1
    14    9   16 1
    15   10   11 1
    16   10   14 1
    17   11   15 1
    18   12   13 1
    19   12   14 1
    20   13   16 1
    21   14   17 1
    22   15   17 1
    23   15   24 1
    24   16   18 1
    25   17   19 1
    26   20   24 1
    27   21   22 1
    28   21   23 1
    29   22   24 1
    30   23   30 1
    31   25   31 1
    32   28   31 2
    33   29   31 2
    34   30   31 1
    35    1   32 1
    36    2   33 1
    37    3   34 1
    38    7   35 1
    39    7   36 1
    40    8   37 1
    41    8   38 1
    42    9   39 1
    43    9   40 1
    44   10   41 1
    45   10   42 1
    46   11   43 1
    47   11   44 1
    48   12   45 1
    49   13   46 1
    50   14   47 1
    51   15   48 1
    52   18   49 1
    53   18   50 1
    54   18   51 1
    55   19   52 1
    56   19   53 1
    57   19   54 1
    58   20   55 1
    59   20   56 1
    60   20   57 1
    61   21   58 1
    62   21   59 1
    63   22   60 1
    64   22   61 1
    65   23   62 1
    66   23   63 1
    67   24   64 1

@<TRIPOS>MOLECULE
DKPES_CSD_MMMF_1_22
   64    67     0     0     0
SMALL
USER_CHARGES

@<TRIPOS>ATOM
      1 C1          2.0121   -1.2143    1.2319 C.2       1 <0>        -0.1500
      2 C2          0.3162   -0.9298   -0.4630 C.2       1 <0>        -0.1356
      3 C3          2.9245   -1.9459    1.8863 C.2       1 <0>        -0.2882
      4 C4          1.3270   -1.6661    0.0290 C.2       1 <0>        -0.1382
      5 C5         -0.4261   -1.3440   -1.6772 C.2       1 <0>         0.4946
      6 C6          3.0520   -6.2645    1.2605 C.2       1 <0>         0.4480
      7 C7         -0.0521   -2.6371   -2.3563 C.3       1 <0>         0.0610
      8 C8          2.6249   -5.3856    0.0869 C.3       1 <0>         0.0610
      9 C9          0.6099   -3.6118   -1.3906 C.3       1 <0>         0.0000
     10 C10         4.4784   -3.8939    3.7777 C.3       1 <0>         0.0000
     11 C11         4.7891   -5.2227    4.4865 C.3       1 <0>         0.0000
     12 C12         3.3262   -3.3340    1.4645 C.3       1 <0>         0.1382
     13 C13         2.2273   -3.9675    0.5485 C.3       1 <0>         0.0000
     14 C14         3.5426   -4.2948    2.6428 C.3       1 <0>         0.0000
     15 C15         4.2322   -6.3446    3.5783 C.3       1 <0>         0.0000
     16 C16         1.7910   -2.9885   -0.5996 C.3       1 <0>         0.1382
     17 C17         4.0987   -5.6679    2.1953 C.3       1 <0>         0.0610
     18 C18         2.9581   -2.6968   -1.5724 C.3       1 <0>         0.0000
     19 C19         5.4441   -5.6231    1.4437 C.3       1 <0>         0.0000
     20 C20         4.5183   -8.6617    2.6779 C.3       1 <0>         0.0000
     21 C21         5.5328   -9.6867    5.0816 C.3       1 <0>         0.0000
     22 C22         5.1520   -8.2058    5.0632 C.3       1 <0>         0.0000
     23 C23         5.5627  -10.2385    6.5010 C.3       1 <0>         0.2800
     24 C24         5.0782   -7.6104    3.6426 C.3       1 <0>         0.0000
     25 O1          8.2156  -11.1163    7.1221 O.3       1 <0>        -0.8167
     26 O2         -1.3014   -0.6098   -2.1336 O.2       1 <0>        -0.5700
     27 O3          2.6287   -7.4120    1.3872 O.2       1 <0>        -0.5700
     28 O4          7.7225  -11.8879    4.8455 O.2       1 <0>        -0.8167
     29 O5          7.5230  -13.4439    6.7323 O.2       1 <0>        -0.8167
     30 O6          5.9065  -11.6164    6.4510 O.3       1 <0>        -0.4637
     31 S1          7.4786  -12.0551    6.2774 S.o2      1 <0>         1.6337
     32 H1          1.7714   -0.2251    1.6135 H         1 <0>         0.1500
     33 H2          0.0003    0.0002   -0.0001 H         1 <0>         0.1500
     34 H3          3.4155   -1.5047    2.7491 H         1 <0>         0.1500
     35 H4         -0.9660   -3.0949   -2.7512 H         1 <0>         0.0000
     36 H5          0.6022   -2.4064   -3.2029 H         1 <0>         0.0000
     37 H6          3.4445   -5.3628   -0.6369 H         1 <0>         0.0000
     38 H7          1.7735   -5.8804   -0.3920 H         1 <0>         0.0000
     39 H8         -0.1524   -3.9705   -0.6847 H         1 <0>         0.0000
     40 H9          0.9430   -4.4864   -1.9618 H         1 <0>         0.0000
     41 H10         4.0144   -3.1796    4.4653 H         1 <0>         0.0000
     42 H11         5.3994   -3.4390    3.3963 H         1 <0>         0.0000
     43 H12         5.8694   -5.3151    4.6450 H         1 <0>         0.0000
     44 H13         4.3104   -5.2623    5.4714 H         1 <0>         0.0000
     45 H14         4.2678   -3.2271    0.9157 H         1 <0>         0.0000
     46 H15         1.3362   -4.1106    1.1841 H         1 <0>         0.0000
     47 H16         2.5535   -4.4515    3.1073 H         1 <0>         0.0000
     48 H17         3.2283   -6.6104    3.9404 H         1 <0>         0.0000
     49 H18         3.2850   -3.6286   -2.0152 H         1 <0>         0.0000
     50 H19         3.7697   -2.2435   -1.0182 H         1 <0>         0.0000
     51 H20         2.6102   -2.0207   -2.3426 H         1 <0>         0.0000
     52 H21         6.2005   -5.2008    2.0953 H         1 <0>         0.0000
     53 H22         5.3355   -5.0069    0.5586 H         1 <0>         0.0000
     54 H23         5.7248   -6.6306    1.1587 H         1 <0>         0.0000
     55 H24         3.4984   -8.9472    2.9564 H         1 <0>         0.0000
     56 H25         5.1358   -9.5663    2.6762 H         1 <0>         0.0000
     57 H26         4.4862   -8.2713    1.6553 H         1 <0>         0.0000
     58 H27         4.8255  -10.2780    4.4891 H         1 <0>         0.0000
     59 H28         6.5150   -9.8326    4.6154 H         1 <0>         0.0000
     60 H29         5.8943   -7.6456    5.6465 H         1 <0>         0.0000
     61 H30         4.1882   -8.0715    5.5705 H         1 <0>         0.0000
     62 H31         4.5823  -10.1413    6.9781 H         1 <0>         0.0000
     63 H32         6.3085   -9.7160    7.1084 H         1 <0>         0.0000
     64 H33         6.0978   -7.3661    3.3127 H         1 <0>         0.0000
@<TRIPOS>BOND
     1    1    3 2
     2    1    4 1
     3    2    4 2
     4    2    5 1
     5    3   12 1
     6    4   16 1
     7    5    7 1
     8    5   26 2
     9    6    8 1
    10    6   17 1
    11    6   27 2
    12    7    9 1
    13    8   13 1
    14    9   16 1
    15   10   11 1
    16   10   14 1
    17   11   15 1
    18   12   13 1
    19   12   14 1
    20   13   16 1
    21   14   17 1
    22   15   17 1
    23   15   24 1
    24   16   18 1
    25   17   19 1
    26   20   24 1
    27   21   22 1
    28   21   23 1
    29   22   24 1
    30   23   30 1
    31   25   31 1
    32   28   31 2
    33   29   31 2
    34   30   31 1
    35    1   32 1
    36    2   33 1
    37    3   34 1
    38    7   35 1
    39    7   36 1
    40    8   37 1
    41    8   38 1
    42    9   39 1
    43    9   40 1
    44   10   41 1
    45   10   42 1
    46   11   43 1
    47   11   44 1
    48   12   45 1
    49   13   46 1
    50   14   47 1
    51   15   48 1
    52   18   49 1
    53   18   50 1
    54   18   51 1
    55   19   52 1
    56   19   53 1
    57   19   54 1
    58   20   55 1
    59   20   56 1
    60   20   57 1
    61   21   58 1
    62   21   59 1
    63   22   60 1
    64   22   61 1
    65   23   62 1
    66   23   63 1
    67   24   64 1

@<TRIPOS>MOLECULE
DKPES_CSD_MMMF_1_20
   64    67     0     0     0
SMALL
USER_CHARGES

@<TRIPOS>ATOM
      1 C1          2.0121   -1.2143    1.2319 C.2       1 <0>        -0.1500
      2 C2          0.3162   -0.9298   -0.4630 C.2       1 <0>        -0.1356
      3 C3          2.9245   -1.9459    1.8863 C.2       1 <0>        -0.2882
      4 C4          1.3270   -1.6661    0.0290 C.2       1 <0>        -0.1382
      5 C5         -0.4261   -1.3440   -1.6772 C.2       1 <0>         0.4946
      6 C6          3.0520   -6.2645    1.2605 C.2       1 <0>         0.4480
      7 C7         -0.0521   -2.6371   -2.3563 C.3       1 <0>         0.0610
      8 C8          2.6249   -5.3856    0.0869 C.3       1 <0>         0.0610
      9 C9          0.6099   -3.6118   -1.3906 C.3       1 <0>         0.0000
     10 C10         4.4784   -3.8939    3.7777 C.3       1 <0>         0.0000
     11 C11         4.7891   -5.2227    4.4865 C.3       1 <0>         0.0000
     12 C12         3.3262   -3.3340    1.4645 C.3       1 <0>         0.1382
     13 C13         2.2273   -3.9675    0.5485 C.3       1 <0>         0.0000
     14 C14         3.5426   -4.2948    2.6428 C.3       1 <0>         0.0000
     15 C15         4.2322   -6.3446    3.5783 C.3       1 <0>         0.0000
     16 C16         1.7910   -2.9885   -0.5996 C.3       1 <0>         0.1382
     17 C17         4.0987   -5.6679    2.1953 C.3       1 <0>         0.0610
     18 C18         2.9581   -2.6968   -1.5724 C.3       1 <0>         0.0000
     19 C19         5.4441   -5.6231    1.4437 C.3       1 <0>         0.0000
     20 C20         4.2804   -8.7995    3.0961 C.3       1 <0>         0.0000
     21 C21         6.3911   -9.2134    5.1576 C.3       1 <0>         0.0000
     22 C22         5.5625   -7.9310    5.0711 C.3       1 <0>         0.0000
     23 C23         6.8204   -9.5060    6.5895 C.3       1 <0>         0.2800
     24 C24         5.0782   -7.6104    3.6426 C.3       1 <0>         0.0000
     25 O1          9.5277   -9.7167    7.9124 O.3       1 <0>        -0.8167
     26 O2         -1.3014   -0.6098   -2.1336 O.2       1 <0>        -0.5700
     27 O3          2.6287   -7.4120    1.3872 O.2       1 <0>        -0.5700
     28 O4          7.7065   -9.0501    9.4159 O.2       1 <0>        -0.8167
     29 O5          9.2535   -7.3559    8.5455 O.2       1 <0>        -0.8167
     30 O6          7.6187   -8.4283    7.0590 O.3       1 <0>        -0.4637
     31 S1          8.6171   -8.6564    8.3418 S.o2      1 <0>         1.6337
     32 H1          1.7714   -0.2251    1.6135 H         1 <0>         0.1500
     33 H2          0.0003    0.0002   -0.0001 H         1 <0>         0.1500
     34 H3          3.4155   -1.5047    2.7491 H         1 <0>         0.1500
     35 H4         -0.9660   -3.0949   -2.7512 H         1 <0>         0.0000
     36 H5          0.6022   -2.4064   -3.2029 H         1 <0>         0.0000
     37 H6          3.4445   -5.3628   -0.6369 H         1 <0>         0.0000
     38 H7          1.7735   -5.8804   -0.3920 H         1 <0>         0.0000
     39 H8         -0.1524   -3.9705   -0.6847 H         1 <0>         0.0000
     40 H9          0.9430   -4.4864   -1.9618 H         1 <0>         0.0000
     41 H10         4.0144   -3.1796    4.4653 H         1 <0>         0.0000
     42 H11         5.3994   -3.4390    3.3963 H         1 <0>         0.0000
     43 H12         5.8694   -5.3151    4.6450 H         1 <0>         0.0000
     44 H13         4.3104   -5.2623    5.4714 H         1 <0>         0.0000
     45 H14         4.2678   -3.2271    0.9157 H         1 <0>         0.0000
     46 H15         1.3362   -4.1106    1.1841 H         1 <0>         0.0000
     47 H16         2.5535   -4.4515    3.1073 H         1 <0>         0.0000
     48 H17         3.2283   -6.6104    3.9404 H         1 <0>         0.0000
     49 H18         3.2850   -3.6286   -2.0152 H         1 <0>         0.0000
     50 H19         3.7697   -2.2435   -1.0182 H         1 <0>         0.0000
     51 H20         2.6102   -2.0207   -2.3426 H         1 <0>         0.0000
     52 H21         6.2005   -5.2008    2.0953 H         1 <0>         0.0000
     53 H22         5.3355   -5.0069    0.5586 H         1 <0>         0.0000
     54 H23         5.7248   -6.6306    1.1587 H         1 <0>         0.0000
     55 H24         3.3864   -8.9844    3.7009 H         1 <0>         0.0000
     56 H25         4.8837   -9.7137    3.0936 H         1 <0>         0.0000
     57 H26         3.9524   -8.6071    2.0692 H         1 <0>         0.0000
     58 H27         5.8230  -10.0703    4.7785 H         1 <0>         0.0000
     59 H28         7.2813   -9.1345    4.5214 H         1 <0>         0.0000
     60 H29         6.1718   -7.0944    5.4372 H         1 <0>         0.0000
     61 H30         4.6997   -8.0091    5.7448 H         1 <0>         0.0000
     62 H31         7.4124  -10.4254    6.6391 H         1 <0>         0.0000
     63 H32         5.9503   -9.6059    7.2462 H         1 <0>         0.0000
     64 H33         5.9579   -7.4756    2.9974 H         1 <0>         0.0000
@<TRIPOS>BOND
     1    1    3 2
     2    1    4 1
     3    2    4 2
     4    2    5 1
     5    3   12 1
     6    4   16 1
     7    5    7 1
     8    5   26 2
     9    6    8 1
    10    6   17 1
    11    6   27 2
    12    7    9 1
    13    8   13 1
    14    9   16 1
    15   10   11 1
    16   10   14 1
    17   11   15 1
    18   12   13 1
    19   12   14 1
    20   13   16 1
    21   14   17 1
    22   15   17 1
    23   15   24 1
    24   16   18 1
    25   17   19 1
    26   20   24 1
    27   21   22 1
    28   21   23 1
    29   22   24 1
    30   23   30 1
    31   25   31 1
    32   28   31 2
    33   29   31 2
    34   30   31 1
    35    1   32 1
    36    2   33 1
    37    3   34 1
    38    7   35 1
    39    7   36 1
    40    8   37 1
    41    8   38 1
    42    9   39 1
    43    9   40 1
    44   10   41 1
    45   10   42 1
    46   11   43 1
    47   11   44 1
    48   12   45 1
    49   13   46 1
    50   14   47 1
    51   15   48 1
    52   18   49 1
    53   18   50 1
    54   18   51 1
    55   19   52 1
    56   19   53 1
    57   19   54 1
    58   20   55 1
    59   20   56 1
    60   20   57 1
    61   21   58 1
    62   21   59 1
    63   22   60 1
    64   22   61 1
    65   23   62 1
    66   23   63 1
    67   24   64 1

@<TRIPOS>MOLECULE
DKPES_CSD_MMMF_1_10
   64    67     0     0     0
SMALL
USER_CHARGES

@<TRIPOS>ATOM
      1 C1          2.0121   -1.2143    1.2319 C.2       1 <0>        -0.1500
      2 C2          0.3162   -0.9298   -0.4630 C.2       1 <0>        -0.1356
      3 C3          2.9245   -1.9459    1.8863 C.2       1 <0>        -0.2882
      4 C4          1.3270   -1.6661    0.0290 C.2       1 <0>        -0.1382
      5 C5         -0.4261   -1.3440   -1.6772 C.2       1 <0>         0.4946
      6 C6          3.0520   -6.2645    1.2605 C.2       1 <0>         0.4480
      7 C7         -0.0521   -2.6371   -2.3563 C.3       1 <0>         0.0610
      8 C8          2.6249   -5.3856    0.0869 C.3       1 <0>         0.0610
      9 C9          0.6099   -3.6118   -1.3906 C.3       1 <0>         0.0000
     10 C10         4.4784   -3.8939    3.7777 C.3       1 <0>         0.0000
     11 C11         4.7891   -5.2227    4.4865 C.3       1 <0>         0.0000
     12 C12         3.3262   -3.3340    1.4645 C.3       1 <0>         0.1382
     13 C13         2.2273   -3.9675    0.5485 C.3       1 <0>         0.0000
     14 C14         3.5426   -4.2948    2.6428 C.3       1 <0>         0.0000
     15 C15         4.2322   -6.3446    3.5783 C.3       1 <0>         0.0000
     16 C16         1.7910   -2.9885   -0.5996 C.3       1 <0>         0.1382
     17 C17         4.0987   -5.6679    2.1953 C.3       1 <0>         0.0610
     18 C18         2.9581   -2.6968   -1.5724 C.3       1 <0>         0.0000
     19 C19         5.4441   -5.6231    1.4437 C.3       1 <0>         0.0000
     20 C20         4.5183   -8.6617    2.6779 C.3       1 <0>         0.0000
     21 C21         5.9758   -9.4919    5.1403 C.3       1 <0>         0.0000
     22 C22         5.1520   -8.2058    5.0632 C.3       1 <0>         0.0000
     23 C23         7.4225   -9.2547    4.7271 C.3       1 <0>         0.2800
     24 C24         5.0782   -7.6104    3.6426 C.3       1 <0>         0.0000
     25 O1          8.0146  -10.8198    2.4046 O.3       1 <0>        -0.8167
     26 O2         -1.3014   -0.6098   -2.1336 O.2       1 <0>        -0.5700
     27 O3          2.6287   -7.4120    1.3872 O.2       1 <0>        -0.5700
     28 O4          6.7359  -12.2573    3.9278 O.2       1 <0>        -0.8167
     29 O5          9.1792  -12.4586    3.8215 O.2       1 <0>        -0.8167
     30 O6          8.1372  -10.4782    4.8338 O.3       1 <0>        -0.4637
     31 S1          8.0099  -11.5993    3.6416 S.o2      1 <0>         1.6337
     32 H1          1.7714   -0.2251    1.6135 H         1 <0>         0.1500
     33 H2          0.0003    0.0002   -0.0001 H         1 <0>         0.1500
     34 H3          3.4155   -1.5047    2.7491 H         1 <0>         0.1500
     35 H4         -0.9660   -3.0949   -2.7512 H         1 <0>         0.0000
     36 H5          0.6022   -2.4064   -3.2029 H         1 <0>         0.0000
     37 H6          3.4445   -5.3628   -0.6369 H         1 <0>         0.0000
     38 H7          1.7735   -5.8804   -0.3920 H         1 <0>         0.0000
     39 H8         -0.1524   -3.9705   -0.6847 H         1 <0>         0.0000
     40 H9          0.9430   -4.4864   -1.9618 H         1 <0>         0.0000
     41 H10         4.0144   -3.1796    4.4653 H         1 <0>         0.0000
     42 H11         5.3994   -3.4390    3.3963 H         1 <0>         0.0000
     43 H12         5.8694   -5.3151    4.6450 H         1 <0>         0.0000
     44 H13         4.3104   -5.2623    5.4714 H         1 <0>         0.0000
     45 H14         4.2678   -3.2271    0.9157 H         1 <0>         0.0000
     46 H15         1.3362   -4.1106    1.1841 H         1 <0>         0.0000
     47 H16         2.5535   -4.4515    3.1073 H         1 <0>         0.0000
     48 H17         3.2283   -6.6104    3.9404 H         1 <0>         0.0000
     49 H18         3.2850   -3.6286   -2.0152 H         1 <0>         0.0000
     50 H19         3.7697   -2.2435   -1.0182 H         1 <0>         0.0000
     51 H20         2.6102   -2.0207   -2.3426 H         1 <0>         0.0000
     52 H21         6.2005   -5.2008    2.0953 H         1 <0>         0.0000
     53 H22         5.3355   -5.0069    0.5586 H         1 <0>         0.0000
     54 H23         5.7248   -6.6306    1.1587 H         1 <0>         0.0000
     55 H24         3.4984   -8.9472    2.9564 H         1 <0>         0.0000
     56 H25         5.1358   -9.5663    2.6762 H         1 <0>         0.0000
     57 H26         4.4862   -8.2713    1.6553 H         1 <0>         0.0000
     58 H27         5.9628   -9.9021    6.1564 H         1 <0>         0.0000
     59 H28         5.5368  -10.2638    4.4961 H         1 <0>         0.0000
     60 H29         5.5971   -7.4633    5.7383 H         1 <0>         0.0000
     61 H30         4.1381   -8.4002    5.4353 H         1 <0>         0.0000
     62 H31         7.8983   -8.5154    5.3792 H         1 <0>         0.0000
     63 H32         7.4815   -8.9069    3.6908 H         1 <0>         0.0000
     64 H33         6.0978   -7.3661    3.3127 H         1 <0>         0.0000
@<TRIPOS>BOND
     1    1    3 2
     2    1    4 1
     3    2    4 2
     4    2    5 1
     5    3   12 1
     6    4   16 1
     7    5    7 1
     8    5   26 2
     9    6    8 1
    10    6   17 1
    11    6   27 2
    12    7    9 1
    13    8   13 1
    14    9   16 1
    15   10   11 1
    16   10   14 1
    17   11   15 1
    18   12   13 1
    19   12   14 1
    20   13   16 1
    21   14   17 1
    22   15   17 1
    23   15   24 1
    24   16   18 1
    25   17   19 1
    26   20   24 1
    27   21   22 1
    28   21   23 1
    29   22   24 1
    30   23   30 1
    31   25   31 1
    32   28   31 2
    33   29   31 2
    34   30   31 1
    35    1   32 1
    36    2   33 1
    37    3   34 1
    38    7   35 1
    39    7   36 1
    40    8   37 1
    41    8   38 1
    42    9   39 1
    43    9   40 1
    44   10   41 1
    45   10   42 1
    46   11   43 1
    47   11   44 1
    48   12   45 1
    49   13   46 1
    50   14   47 1
    51   15   48 1
    52   18   49 1
    53   18   50 1
    54   18   51 1
    55   19   52 1
    56   19   53 1
    57   19   54 1
    58   20   55 1
    59   20   56 1
    60   20   57 1
    61   21   58 1
    62   21   59 1
    63   22   60 1
    64   22   61 1
    65   23   62 1
    66   23   63 1
    67   24   64 1

@<TRIPOS>MOLECULE
DKPES_CSD_MMMF_1_18
   64    67     0     0     0
SMALL
USER_CHARGES

@<TRIPOS>ATOM
      1 C1          2.0121   -1.2143    1.2319 C.2       1 <0>        -0.1500
      2 C2          0.3162   -0.9298   -0.4630 C.2       1 <0>        -0.1356
      3 C3          2.9245   -1.9459    1.8863 C.2       1 <0>        -0.2882
      4 C4          1.3270   -1.6661    0.0290 C.2       1 <0>        -0.1382
      5 C5         -0.4261   -1.3440   -1.6772 C.2       1 <0>         0.4946
      6 C6          3.0520   -6.2645    1.2605 C.2       1 <0>         0.4480
      7 C7         -0.0521   -2.6371   -2.3563 C.3       1 <0>         0.0610
      8 C8          2.6249   -5.3856    0.0869 C.3       1 <0>         0.0610
      9 C9          0.6099   -3.6118   -1.3906 C.3       1 <0>         0.0000
     10 C10         4.4784   -3.8939    3.7777 C.3       1 <0>         0.0000
     11 C11         4.7891   -5.2227    4.4865 C.3       1 <0>         0.0000
     12 C12         3.3262   -3.3340    1.4645 C.3       1 <0>         0.1382
     13 C13         2.2273   -3.9675    0.5485 C.3       1 <0>         0.0000
     14 C14         3.5426   -4.2948    2.6428 C.3       1 <0>         0.0000
     15 C15         4.2322   -6.3446    3.5783 C.3       1 <0>         0.0000
     16 C16         1.7910   -2.9885   -0.5996 C.3       1 <0>         0.1382
     17 C17         4.0987   -5.6679    2.1953 C.3       1 <0>         0.0610
     18 C18         2.9581   -2.6968   -1.5724 C.3       1 <0>         0.0000
     19 C19         5.4441   -5.6231    1.4437 C.3       1 <0>         0.0000
     20 C20         4.5183   -8.6617    2.6779 C.3       1 <0>         0.0000
     21 C21         5.9758   -9.4919    5.1403 C.3       1 <0>         0.0000
     22 C22         5.1520   -8.2058    5.0632 C.3       1 <0>         0.0000
     23 C23         7.4225   -9.2547    4.7271 C.3       1 <0>         0.2800
     24 C24         5.0782   -7.6104    3.6426 C.3       1 <0>         0.0000
     25 O1          9.1591  -10.0217    6.8694 O.3       1 <0>        -0.8167
     26 O2         -1.3014   -0.6098   -2.1336 O.2       1 <0>        -0.5700
     27 O3          2.6287   -7.4120    1.3872 O.2       1 <0>        -0.5700
     28 O4          7.2927   -8.7830    7.8713 O.2       1 <0>        -0.8167
     29 O5          9.4353   -7.6542    7.4762 O.2       1 <0>        -0.8167
     30 O6          7.9926   -8.2799    5.5896 O.3       1 <0>        -0.4637
     31 S1          8.5203   -8.7233    7.0793 S.o2      1 <0>         1.6337
     32 H1          1.7714   -0.2251    1.6135 H         1 <0>         0.1500
     33 H2          0.0003    0.0002   -0.0001 H         1 <0>         0.1500
     34 H3          3.4155   -1.5047    2.7491 H         1 <0>         0.1500
     35 H4         -0.9660   -3.0949   -2.7512 H         1 <0>         0.0000
     36 H5          0.6022   -2.4064   -3.2029 H         1 <0>         0.0000
     37 H6          3.4445   -5.3628   -0.6369 H         1 <0>         0.0000
     38 H7          1.7735   -5.8804   -0.3920 H         1 <0>         0.0000
     39 H8         -0.1524   -3.9705   -0.6847 H         1 <0>         0.0000
     40 H9          0.9430   -4.4864   -1.9618 H         1 <0>         0.0000
     41 H10         4.0144   -3.1796    4.4653 H         1 <0>         0.0000
     42 H11         5.3994   -3.4390    3.3963 H         1 <0>         0.0000
     43 H12         5.8694   -5.3151    4.6450 H         1 <0>         0.0000
     44 H13         4.3104   -5.2623    5.4714 H         1 <0>         0.0000
     45 H14         4.2678   -3.2271    0.9157 H         1 <0>         0.0000
     46 H15         1.3362   -4.1106    1.1841 H         1 <0>         0.0000
     47 H16         2.5535   -4.4515    3.1073 H         1 <0>         0.0000
     48 H17         3.2283   -6.6104    3.9404 H         1 <0>         0.0000
     49 H18         3.2850   -3.6286   -2.0152 H         1 <0>         0.0000
     50 H19         3.7697   -2.2435   -1.0182 H         1 <0>         0.0000
     51 H20         2.6102   -2.0207   -2.3426 H         1 <0>         0.0000
     52 H21         6.2005   -5.2008    2.0953 H         1 <0>         0.0000
     53 H22         5.3355   -5.0069    0.5586 H         1 <0>         0.0000
     54 H23         5.7248   -6.6306    1.1587 H         1 <0>         0.0000
     55 H24         3.4984   -8.9472    2.9564 H         1 <0>         0.0000
     56 H25         5.1358   -9.5663    2.6762 H         1 <0>         0.0000
     57 H26         4.4862   -8.2713    1.6553 H         1 <0>         0.0000
     58 H27         5.9628   -9.9021    6.1564 H         1 <0>         0.0000
     59 H28         5.5368  -10.2638    4.4961 H         1 <0>         0.0000
     60 H29         5.5971   -7.4633    5.7383 H         1 <0>         0.0000
     61 H30         4.1381   -8.4002    5.4353 H         1 <0>         0.0000
     62 H31         7.4787   -8.8849    3.6983 H         1 <0>         0.0000
     63 H32         8.0085  -10.1757    4.8078 H         1 <0>         0.0000
     64 H33         6.0978   -7.3661    3.3127 H         1 <0>         0.0000
@<TRIPOS>BOND
     1    1    3 2
     2    1    4 1
     3    2    4 2
     4    2    5 1
     5    3   12 1
     6    4   16 1
     7    5    7 1
     8    5   26 2
     9    6    8 1
    10    6   17 1
    11    6   27 2
    12    7    9 1
    13    8   13 1
    14    9   16 1
    15   10   11 1
    16   10   14 1
    17   11   15 1
    18   12   13 1
    19   12   14 1
    20   13   16 1
    21   14   17 1
    22   15   17 1
    23   15   24 1
    24   16   18 1
    25   17   19 1
    26   20   24 1
    27   21   22 1
    28   21   23 1
    29   22   24 1
    30   23   30 1
    31   25   31 1
    32   28   31 2
    33   29   31 2
    34   30   31 1
    35    1   32 1
    36    2   33 1
    37    3   34 1
    38    7   35 1
    39    7   36 1
    40    8   37 1
    41    8   38 1
    42    9   39 1
    43    9   40 1
    44   10   41 1
    45   10   42 1
    46   11   43 1
    47   11   44 1
    48   12   45 1
    49   13   46 1
    50   14   47 1
    51   15   48 1
    52   18   49 1
    53   18   50 1
    54   18   51 1
    55   19   52 1
    56   19   53 1
    57   19   54 1
    58   20   55 1
    59   20   56 1
    60   20   57 1
    61   21   58 1
    62   21   59 1
    63   22   60 1
    64   22   61 1
    65   23   62 1
    66   23   63 1
    67   24   64 1

